distopf/cases/dss/9500-primary-network/Loads_primary.dss
New Load.21399326c0 bus1=L2879092.3 Phases=1 kV=7.2 kW=60.17 pf=0.97 Vmin=0.75 Vmax=1.075
New Load.21209868a0 bus1=L2710518.1 Phases=1 kV=7.2 kW=8.87 pf=0.97 Vmin=0.75 Vmax=1.075
New Load.21197413c0 bus1=L3141411.3 Phases=1 kV=7.2 kW=30.52000000000004 pf=0.97 Vmin=0.75 Vmax=1.075
New Load.226964880a0 bus1=L3172805.1 Phases=1 kV=7.2 kW=11.87 pf=0.97 Vmin=0.75 Vmax=1.075
New Load.391973c0 bus1=L2673319.3 Phases=1 kV=7.2 kW=6.1 pf=0.97 Vmin=0.75 Vmax=1.075
New Load.391977a0 bus1=L3216350.1 Phases=1 kV=7.2 kW=18.45042831420905 pf=0.97 Vmin=0.75 Vmax=1.075
New Load.391976c0 bus1=L2841631.3 Phases=1 kV=7.2 kW=13.170000000000002 pf=0.97 Vmin=0.75 Vmax=1.075
New Load.391978c0 bus1=L3141402.3 Phases=1 kV=7.2 kW=10.17 pf=0.97 Vmin=0.75 Vmax=1.075
New Load.391979c0 bus1=L3197642.3 Phases=1 kV=7.2 kW=6.1 pf=0.97 Vmin=0.75 Vmax=1.075
New Load.391980a0 bus1=L2691952.1 Phases=1 kV=7.2 kW=5.32 pf=0.97 Vmin=0.75 Vmax=1.075
New Load.21399305a0 bus1=L3048221.1 Phases=1 kV=7.2 kW=11.869999999999997 pf=0.97 Vmin=0.75 Vmax=1.075
New Load.227902981a0 bus1=L3047058.1 Phases=1 kV=7.2 kW=13.3 pf=0.97 Vmin=0.75 Vmax=1.075
New Load.227921416a0 bus1=L3065696.1 Phases=1 kV=7.2 kW=11.869999999999996 pf=0.97 Vmin=0.75 Vmax=1.075
New Load.391989a0 bus1=L2766747.1 Phases=1 kV=7.2 kW=8.86999999999999 pf=0.97 Vmin=0.75 Vmax=1.075
New Load.391990a0 bus1=L2858163.1 Phases=1 kV=7.2 kW=5.32 pf=0.97 Vmin=0.75 Vmax=1.075
New Load.391991a0 bus1=L3216346.1 Phases=1 kV=7.2 kW=8.320000000000004 pf=0.97 Vmin=0.75 Vmax=1.075
New Load.391992a0 bus1=L3029500.1 Phases=1 kV=7.2 kW=8.870000000000001 pf=0.97 Vmin=0.75 Vmax=1.075
New Load.21397721a0 bus1=L3178976.1 Phases=1 kV=7.2 kW=5.32 pf=0.97 Vmin=0.75 Vmax=1.075
New Load.21397304a0 bus1=L2973169.1 Phases=1 kV=7.2 kW=5.32 pf=0.97 Vmin=0.75 Vmax=1.075
New Load.391993a0 bus1=L3156034.1 Phases=1 kV=7.2 kW=3.55 pf=0.97 Vmin=0.75 Vmax=1.075
New Load.391994a0 bus1=L3066821.1 Phases=1 kV=7.2 kW=8.870000000000001 pf=0.97 Vmin=0.75 Vmax=1.075
New Load.391995a0 bus1=L2748140.1 Phases=1 kV=7.2 kW=8.870000000000001 pf=0.97 Vmin=0.75 Vmax=1.075
New Load.391996a0 bus1=L3141412.1 Phases=1 kV=7.2 kW=5.32 pf=0.97 Vmin=0.75 Vmax=1.075
New Load.294845a0 bus1=L3010563.1 Phases=1 kV=7.2 kW=5.32 pf=0.97 Vmin=0.75 Vmax=1.075
New Load.294844a0 bus1=L2841623.1 Phases=1 kV=7.2 kW=5.32 pf=0.97 Vmin=0.75 Vmax=1.075
New Load.294843a0 bus1=L3178982.1 Phases=1 kV=7.2 kW=11.870000000000005 pf=0.97 Vmin=0.75 Vmax=1.075
New Load.294842a0 bus1=L3101789.1 Phases=1 kV=7.2 kW=8.870000000000001 pf=0.97 Vmin=0.75 Vmax=1.075
New Load.355376b0 bus1=L2914323.2 Phases=1 kV=7.2 kW=3.89 pf=0.97 Vmin=0.75 Vmax=1.075
New Load.355375a0 bus1=L2689691.1 Phases=1 kV=7.2 kW=8.870000000000001 pf=0.97 Vmin=0.75 Vmax=1.075
New Load.355359b0 bus1=L2766730.2 Phases=1 kV=7.2 kW=5.84 pf=0.97 Vmin=0.75 Vmax=1.075
New Load.355358b0 bus1=L2673322.2 Phases=1 kV=7.2 kW=3.89 pf=0.97 Vmin=0.75 Vmax=1.075
New Load.227989724b0 bus1=L2859391.2 Phases=1 kV=7.2 kW=9.73000000000001 pf=0.97 Vmin=0.75 Vmax=1.075
New Load.355438c0 bus1=L2673323.3 Phases=1 kV=7.2 kW=13.169999999999996 pf=0.97 Vmin=0.75 Vmax=1.075
New Load.355437c0 bus1=L2710525.3 Phases=1 kV=7.2 kW=10.17 pf=0.97 Vmin=0.75 Vmax=1.075
New Load.227653310c0 bus1=L2746587.3 Phases=1 kV=7.2 kW=10.17 pf=0.97 Vmin=0.75 Vmax=1.075
New Load.355433c0 bus1=L2991933.3 Phases=1 kV=7.2 kW=20.34000000000001 pf=0.97 Vmin=0.75 Vmax=1.075
New Load.355432c0 bus1=L3122837.3 Phases=1 kV=7.2 kW=15.26 pf=0.97 Vmin=0.75 Vmax=1.075
New Load.355431c0 bus1=L3048222.3 Phases=1 kV=7.2 kW=15.25999999999997 pf=0.97 Vmin=0.75 Vmax=1.075
New Load.355584b0 bus1=L2710542.2 Phases=1 kV=7.2 kW=9.73 pf=0.97 Vmin=0.75 Vmax=1.075
New Load.21248901b0 bus1=L2729430.2 Phases=1 kV=7.2 kW=9.73 pf=0.97 Vmin=0.75 Vmax=1.075
New Load.355585b0 bus1=L2766742.2 Phases=1 kV=7.2 kW=5.84 pf=0.97 Vmin=0.75 Vmax=1.075
New Load.355586b0 bus1=L3254234.2 Phases=1 kV=7.2 kW=9.73 pf=0.97 Vmin=0.75 Vmax=1.075
New Load.355587b0 bus1=L3104114.2 Phases=1 kV=7.2 kW=12.73 pf=0.97 Vmin=0.75 Vmax=1.075
New Load.355588b0 bus1=L2822857.2 Phases=1 kV=7.2 kW=5.84 pf=0.97 Vmin=0.75 Vmax=1.075
New Load.355618b0 bus1=L2954338.2 Phases=1 kV=7.2 kW=9.73 pf=0.97 Vmin=0.75 Vmax=1.075
New Load.355592b0 bus1=L3254206.2 Phases=1 kV=7.2 kW=9.73 pf=0.97 Vmin=0.75 Vmax=1.075
New Load.2223664050b0 bus1=L3315860.2 Phases=1 kV=7.2 kW=5.84 pf=0.97 Vmin=0.75 Vmax=1.075
New Load.355596b0 bus1=L3178969.2 Phases=1 kV=7.2 kW=8.840000000000003 pf=0.97 Vmin=0.75 Vmax=1.075
New Load.355597b0 bus1=L2729401.2 Phases=1 kV=7.2 kW=5.84 pf=0.97 Vmin=0.75 Vmax=1.075
New Load.355603b0 bus1=L3160108.2 Phases=1 kV=7.2 kW=14.59 pf=0.97 Vmin=0.75 Vmax=1.075
New Load.355606b0 bus1=L3029510.2 Phases=1 kV=7.2 kW=5.84 pf=0.97 Vmin=0.75 Vmax=1.075
New Load.355605b0 bus1=L2729409.2 Phases=1 kV=7.2 kW=9.73 pf=0.97 Vmin=0.75 Vmax=1.075
New Load.355604b0 bus1=L2841624.2 Phases=1 kV=7.2 kW=5.84 pf=0.97 Vmin=0.75 Vmax=1.075
New Load.21400108b0 bus1=L2748139.2 Phases=1 kV=7.2 kW=8.839999999999996 pf=0.97 Vmin=0.75 Vmax=1.075
New Load.355607b0 bus1=L2991927.2 Phases=1 kV=7.2 kW=12.73 pf=0.97 Vmin=0.75 Vmax=1.075
New Load.355602b0 bus1=L3251806.2 Phases=1 kV=7.2 kW=13.28170093536377 pf=0.97 Vmin=0.75 Vmax=1.075
New Load.355598b0 bus1=L2804245.2 Phases=1 kV=7.2 kW=9.73 pf=0.97 Vmin=0.75 Vmax=1.075
New Load.226191995b0 bus1=L2801896.2 Phases=1 kV=7.2 kW=5.84 pf=0.97 Vmin=0.75 Vmax=1.075
New Load.355601b0 bus1=L2673326.2 Phases=1 kV=7.2 kW=5.84 pf=0.97 Vmin=0.75 Vmax=1.075
New Load.355600b0 bus1=L2691938.2 Phases=1 kV=7.2 kW=9.73 pf=0.97 Vmin=0.75 Vmax=1.075
New Load.355599b0 bus1=L3216338.2 Phases=1 kV=7.2 kW=12.730000000000002 pf=0.97 Vmin=0.75 Vmax=1.075
New Load.2118903b0 bus1=L2973146.2 Phases=1 kV=7.2 kW=9.729999999999999 pf=0.97 Vmin=0.75 Vmax=1.075
New Load.354851b0 bus1=L2991901.2 Phases=1 kV=7.2 kW=9.73 pf=0.97 Vmin=0.75 Vmax=1.075
New Load.225571871b0 bus1=L2911069.2 Phases=1 kV=7.2 kW=13.30801349163057 pf=0.97 Vmin=0.75 Vmax=1.075
New Load.225571845b0 bus1=L2948732.2 Phases=1 kV=7.2 kW=15.72981189727783 pf=0.97 Vmin=0.75 Vmax=1.075
New Load.225684682b0 bus1=L3231269.2 Phases=1 kV=7.2 kW=13.24446736812588 pf=0.97 Vmin=0.75 Vmax=1.075
New Load.355595b0 bus1=L2860479.2 Phases=1 kV=7.2 kW=3.8899999999999997 pf=0.97 Vmin=0.75 Vmax=1.075
New Load.355593b0 bus1=L2766715.2 Phases=1 kV=7.2 kW=5.84 pf=0.97 Vmin=0.75 Vmax=1.075
New Load.355589b0 bus1=L2691939.2 Phases=1 kV=7.2 kW=9.73 pf=0.97 Vmin=0.75 Vmax=1.075
New Load.355590b0 bus1=L2860478.2 Phases=1 kV=7.2 kW=8.84 pf=0.97 Vmin=0.75 Vmax=1.075
New Load.355591b0 bus1=L2822858.2 Phases=1 kV=7.2 kW=9.73 pf=0.97 Vmin=0.75 Vmax=1.075
New Load.227896008c0 bus1=L3177881.3 Phases=1 kV=7.2 kW=10.169999999999991 pf=0.97 Vmin=0.75 Vmax=1.075
New Load.225806974a0 bus1=L2876814.1 Phases=1 kV=7.2 kW=6.550000000000003 pf=0.97 Vmin=0.75 Vmax=1.075
New Load.2120183c0 bus1=L3122818.3 Phases=1 kV=7.2 kW=10.170000000000002 pf=0.97 Vmin=0.75 Vmax=1.075
New Load.225533531a0 bus1=L2685805.1 Phases=1 kV=7.2 kW=8.870000000000001 pf=0.97 Vmin=0.75 Vmax=1.075
New Load.355780b0 bus1=L3160102.2 Phases=1 kV=7.2 kW=9.73 pf=0.97 Vmin=0.75 Vmax=1.075
New Load.355779c0 bus1=L3122817.3 Phases=1 kV=7.2 kW=6.1 pf=0.97 Vmin=0.75 Vmax=1.075
New Load.355778c0 bus1=L2673314.3 Phases=1 kV=7.2 kW=4.07 pf=0.97 Vmin=0.75 Vmax=1.075
New Load.355777b0 bus1=L3085398.2 Phases=1 kV=7.2 kW=9.73 pf=0.97 Vmin=0.75 Vmax=1.075
New Load.355767b0 bus1=L3197634.2 Phases=1 kV=7.2 kW=14.590000000000028 pf=0.97 Vmin=0.75 Vmax=1.075
New Load.355768b0 bus1=L2729408.2 Phases=1 kV=7.2 kW=10.96741597175598 pf=0.97 Vmin=0.75 Vmax=1.075
New Load.441311a0 bus1=L2766720.1 Phases=1 kV=7.2 kW=11.869999999999996 pf=0.97 Vmin=0.75 Vmax=1.075
New Load.356062b0 bus1=L3122816.2 Phases=1 kV=7.2 kW=9.73 pf=0.97 Vmin=0.75 Vmax=1.075
New Load.356063c0 bus1=L3160103.3 Phases=1 kV=7.2 kW=9.099999999999996 pf=0.97 Vmin=0.75 Vmax=1.075
New Load.321841b0 bus1=L2954347.2 Phases=1 kV=7.2 kW=9.73 pf=0.97 Vmin=0.75 Vmax=1.075
New Load.226192493b0 bus1=L2764399.2 Phases=1 kV=7.2 kW=8.840000000000002 pf=0.97 Vmin=0.75 Vmax=1.075
New Load.226192492b0 bus1=L3008232.2 Phases=1 kV=7.2 kW=6.890000000000003 pf=0.97 Vmin=0.75 Vmax=1.075
New Load.356065b0 bus1=L3104124.2 Phases=1 kV=7.2 kW=5.84 pf=0.97 Vmin=0.75 Vmax=1.075
New Load.356064b0 bus1=L2935556.2 Phases=1 kV=7.2 kW=12.729999999999999 pf=0.97 Vmin=0.75 Vmax=1.075
New Load.321840b0 bus1=L2804256.2 Phases=1 kV=7.2 kW=3.89 pf=0.97 Vmin=0.75 Vmax=1.075
New Load.2224192013a0 bus1=L3632979.1 Phases=1 kV=7.2 kW=5.32 pf=0.97 Vmin=0.75 Vmax=1.075
New Load.321839a0 bus1=L2710516.1 Phases=1 kV=7.2 kW=8.870000000000001 pf=0.97 Vmin=0.75 Vmax=1.075
New Load.321838a0 bus1=L2691944.1 Phases=1 kV=7.2 kW=11.870000000000003 pf=0.97 Vmin=0.75 Vmax=1.075
New Load.321837a0 bus1=L2673312.1 Phases=1 kV=7.2 kW=8.87 pf=0.97 Vmin=0.75 Vmax=1.075
New Load.321836a0 bus1=L3235247.1 Phases=1 kV=7.2 kW=8.32 pf=0.97 Vmin=0.75 Vmax=1.075
New Load.321849b0 bus1=L2748152.2 Phases=1 kV=7.2 kW=5.84 pf=0.97 Vmin=0.75 Vmax=1.075
New Load.21452406b0 bus1=L3216361.2 Phases=1 kV=7.2 kW=9.73 pf=0.97 Vmin=0.75 Vmax=1.075
New Load.321851b0 bus1=L2729434.2 Phases=1 kV=7.2 kW=8.840000000000003 pf=0.97 Vmin=0.75 Vmax=1.075
New Load.321852c0 bus1=L2916608.3 Phases=1 kV=7.2 kW=7.89383500397205 pf=0.97 Vmin=0.75 Vmax=1.075
New Load.321853b0 bus1=L2673313.2 Phases=1 kV=7.2 kW=9.73 pf=0.97 Vmin=0.75 Vmax=1.075
New Load.321854b0 bus1=L2804257.2 Phases=1 kV=7.2 kW=5.84 pf=0.97 Vmin=0.75 Vmax=1.075
New Load.321855b0 bus1=L2860485.2 Phases=1 kV=7.2 kW=5.84 pf=0.97 Vmin=0.75 Vmax=1.075
New Load.321856b0 bus1=L2860506.2 Phases=1 kV=7.2 kW=8.840000000000003 pf=0.97 Vmin=0.75 Vmax=1.075
New Load.2127681b0 bus1=L2785522.2 Phases=1 kV=7.2 kW=12.730000000000004 pf=0.97 Vmin=0.75 Vmax=1.075
New Load.321858b0 bus1=L3122815.2 Phases=1 kV=7.2 kW=5.84 pf=0.97 Vmin=0.75 Vmax=1.075
New Load.321859b0 bus1=L3254213.2 Phases=1 kV=7.2 kW=9.73 pf=0.97 Vmin=0.75 Vmax=1.075
New Load.2127319b0 bus1=L2766744.2 Phases=1 kV=7.2 kW=9.73 pf=0.97 Vmin=0.75 Vmax=1.075
New Load.321860b0 bus1=L2785543.2 Phases=1 kV=7.2 kW=12.73 pf=0.97 Vmin=0.75 Vmax=1.075
New Load.21451973b0 bus1=L3010580.2 Phases=1 kV=7.2 kW=5.84 pf=0.97 Vmin=0.75 Vmax=1.075
New Load.21426205b0 bus1=L2731712.2 Phases=1 kV=7.2 kW=9.73 pf=0.97 Vmin=0.75 Vmax=1.075
New Load.321883c0 bus1=L3010564.3 Phases=1 kV=7.2 kW=6.1 pf=0.97 Vmin=0.75 Vmax=1.075
New Load.321884c0 bus1=L2710515.3 Phases=1 kV=7.2 kW=15.26 pf=0.97 Vmin=0.75 Vmax=1.075
New Load.321886c0 bus1=L2766746.3 Phases=1 kV=7.2 kW=10.17 pf=0.97 Vmin=0.75 Vmax=1.075
New Load.321890c0 bus1=L3104118.3 Phases=1 kV=7.2 kW=15.26000000000001 pf=0.97 Vmin=0.75 Vmax=1.075
New Load.321891c0 bus1=L2748126.3 Phases=1 kV=7.2 kW=10.170000000000002 pf=0.97 Vmin=0.75 Vmax=1.075
New Load.321892c0 bus1=L3235267.3 Phases=1 kV=7.2 kW=10.17 pf=0.97 Vmin=0.75 Vmax=1.075
New Load.321893c0 bus1=L2841645.3 Phases=1 kV=7.2 kW=10.17 pf=0.97 Vmin=0.75 Vmax=1.075
New Load.321894c0 bus1=L3066829.3 Phases=1 kV=7.2 kW=10.17 pf=0.97 Vmin=0.75 Vmax=1.075
New Load.2099529c0 bus1=L3235268.3 Phases=1 kV=7.2 kW=10.17 pf=0.97 Vmin=0.75 Vmax=1.075
New Load.321888c0 bus1=L3235241.3 Phases=1 kV=7.2 kW=10.17 pf=0.97 Vmin=0.75 Vmax=1.075
New Load.321887c0 bus1=L2691941.3 Phases=1 kV=7.2 kW=13.170000000000043 pf=0.97 Vmin=0.75 Vmax=1.075
New Load.21455388c0 bus1=L2879089.3 Phases=1 kV=7.2 kW=18.26000000000001 pf=0.97 Vmin=0.75 Vmax=1.075
New Load.321882c0 bus1=L2916607.3 Phases=1 kV=7.2 kW=10.17 pf=0.97 Vmin=0.75 Vmax=1.075
New Load.321861c0 bus1=L3235248.3 Phases=1 kV=7.2 kW=6.1000000000000005 pf=0.97 Vmin=0.75 Vmax=1.075
New Load.228057846a0 bus1=L3215340.1 Phases=1 kV=7.2 kW=8.870000000000001 pf=0.97 Vmin=0.75 Vmax=1.075
New Load.226109079a0 bus1=L2726983.1 Phases=1 kV=7.2 kW=13.3 pf=0.97 Vmin=0.75 Vmax=1.075
New Load.321874a0 bus1=L2764412.1 Phases=1 kV=7.2 kW=8.87 pf=0.97 Vmin=0.75 Vmax=1.075
New Load.226029836a0 bus1=L3251808.1 Phases=1 kV=7.2 kW=8.319999999999999 pf=0.97 Vmin=0.75 Vmax=1.075
New Load.227905262a0 bus1=L3140238.1 Phases=1 kV=7.2 kW=12.19017531514168 pf=0.97 Vmin=0.75 Vmax=1.075
New Load.321880a0 bus1=L2876812.1 Phases=1 kV=7.2 kW=8.32 pf=0.97 Vmin=0.75 Vmax=1.075
New Load.321881a0 bus1=L2970811.1 Phases=1 kV=7.2 kW=8.870000000000001 pf=0.97 Vmin=0.75 Vmax=1.075
New Load.225897846a0 bus1=L3120504.1 Phases=1 kV=7.2 kW=5.32 pf=0.97 Vmin=0.75 Vmax=1.075
New Load.227903012a0 bus1=L3177894.1 Phases=1 kV=7.2 kW=8.870000000000001 pf=0.97 Vmin=0.75 Vmax=1.075
New Load.226159329a0 bus1=L3082993.1 Phases=1 kV=7.2 kW=8.87 pf=0.97 Vmin=0.75 Vmax=1.075
New Load.2223661373a0 bus1=L3312692.1 Phases=1 kV=7.2 kW=8.86999999999999 pf=0.97 Vmin=0.75 Vmax=1.075
New Load.225991691a0 bus1=L2989571.1 Phases=1 kV=7.2 kW=5.32 pf=0.97 Vmin=0.75 Vmax=1.075
New Load.225869139a0 bus1=L3120503.1 Phases=1 kV=7.2 kW=5.32 pf=0.97 Vmin=0.75 Vmax=1.075
New Load.225673440a0 bus1=L3251807.1 Phases=1 kV=7.2 kW=8.870000000000001 pf=0.97 Vmin=0.75 Vmax=1.075
New Load.225668688a0 bus1=L2858175.1 Phases=1 kV=7.2 kW=5.32 pf=0.97 Vmin=0.75 Vmax=1.075
New Load.321159a0 bus1=L3008248.1 Phases=1 kV=7.2 kW=5.32 pf=0.97 Vmin=0.75 Vmax=1.075
New Load.225901711a0 bus1=L3195327.1 Phases=1 kV=7.2 kW=5.32 pf=0.97 Vmin=0.75 Vmax=1.075
New Load.225767272a0 bus1=L3139103.1 Phases=1 kV=7.2 kW=8.870000000000001 pf=0.97 Vmin=0.75 Vmax=1.075
New Load.321878a0 bus1=L3101788.1 Phases=1 kV=7.2 kW=8.870000000000001 pf=0.97 Vmin=0.75 Vmax=1.075
New Load.321877a0 bus1=L3101787.1 Phases=1 kV=7.2 kW=8.87 pf=0.97 Vmin=0.75 Vmax=1.075
New Load.321876a0 bus1=L3027132.1 Phases=1 kV=7.2 kW=5.32 pf=0.97 Vmin=0.75 Vmax=1.075
New Load.355773a0 bus1=L2991909.1 Phases=1 kV=7.2 kW=8.870000000000001 pf=0.97 Vmin=0.75 Vmax=1.075
New Load.21396867a0 bus1=L2710536.1 Phases=1 kV=7.2 kW=8.870000000000001 pf=0.97 Vmin=0.75 Vmax=1.075
New Load.21470326a0 bus1=L2766748.1 Phases=1 kV=7.2 kW=5.32 pf=0.97 Vmin=0.75 Vmax=1.075
New Load.21396959a0 bus1=L3197638.1 Phases=1 kV=7.2 kW=8.870000000000001 pf=0.97 Vmin=0.75 Vmax=1.075
New Load.21397005a0 bus1=L2935557.1 Phases=1 kV=7.2 kW=13.3 pf=0.97 Vmin=0.75 Vmax=1.075
New Load.21397029a0 bus1=L2673311.1 Phases=1 kV=7.2 kW=8.87 pf=0.97 Vmin=0.75 Vmax=1.075
New Load.226191772c0 bus1=L3120484.3 Phases=1 kV=7.2 kW=6.1 pf=0.97 Vmin=0.75 Vmax=1.075
New Load.226191778c0 bus1=L2820528.3 Phases=1 kV=7.2 kW=10.17 pf=0.97 Vmin=0.75 Vmax=1.075
New Load.226191779c0 bus1=L2745799.3 Phases=1 kV=7.2 kW=10.17 pf=0.97 Vmin=0.75 Vmax=1.075
New Load.355840b0 bus1=L2822871.2 Phases=1 kV=7.2 kW=9.73 pf=0.97 Vmin=0.75 Vmax=1.075
New Load.355842a0 bus1=L2876813.3 Phases=1 kV=7.2 kW=8.870000000000001 pf=0.97 Vmin=0.75 Vmax=1.075
New Load.21399809a0 bus1=L2785531.3 Phases=1 kV=7.2 kW=5.32 pf=0.97 Vmin=0.75 Vmax=1.075
New Load.21399826a0 bus1=L3216358.3 Phases=1 kV=7.2 kW=8.870000000000001 pf=0.97 Vmin=0.75 Vmax=1.075
New Load.21399762a0 bus1=L2879087.3 Phases=1 kV=7.2 kW=5.32 pf=0.97 Vmin=0.75 Vmax=1.075
New Load.21399707a0 bus1=L3141403.3 Phases=1 kV=7.2 kW=8.870000000000001 pf=0.97 Vmin=0.75 Vmax=1.075
New Load.226101460a0 bus1=L2857591.3 Phases=1 kV=7.2 kW=8.320000000000004 pf=0.97 Vmin=0.75 Vmax=1.075
New Load.226101449a0 bus1=L3027133.3 Phases=1 kV=7.2 kW=8.870000000000001 pf=0.97 Vmin=0.75 Vmax=1.075
New Load.21483138a0 bus1=L3122847.3 Phases=1 kV=7.2 kW=5.32 pf=0.97 Vmin=0.75 Vmax=1.075
New Load.21399752a0 bus1=L2785546.3 Phases=1 kV=7.2 kW=11.87 pf=0.97 Vmin=0.75 Vmax=1.075
New Load.226196642a0 bus1=L2914324.3 Phases=1 kV=7.2 kW=4.769999999999996 pf=0.97 Vmin=0.75 Vmax=1.075
New Load.294810a0 bus1=L3010585.3 Phases=1 kV=7.2 kW=13.3 pf=0.97 Vmin=0.75 Vmax=1.075
New Load.294809a0 bus1=L2952014.3 Phases=1 kV=7.2 kW=5.32 pf=0.97 Vmin=0.75 Vmax=1.075
New Load.294812a0 bus1=L3120502.3 Phases=1 kV=7.2 kW=5.32 pf=0.97 Vmin=0.75 Vmax=1.075
New Load.294789a0 bus1=L2895461.3 Phases=1 kV=7.2 kW=8.86999999999999 pf=0.97 Vmin=0.75 Vmax=1.075
New Load.294788a0 bus1=L2821010.3 Phases=1 kV=7.2 kW=13.3 pf=0.97 Vmin=0.75 Vmax=1.075
New Load.21399630a0 bus1=L3233353.3 Phases=1 kV=7.2 kW=5.32 pf=0.97 Vmin=0.75 Vmax=1.075
New Load.293681a0 bus1=L3195751.3 Phases=1 kV=7.2 kW=8.870000000000001 pf=0.97 Vmin=0.75 Vmax=1.075
New Load.355843a0 bus1=L2952013.3 Phases=1 kV=7.2 kW=3.5500000000000003 pf=0.97 Vmin=0.75 Vmax=1.075
New Load.355944b0 bus1=L3197646.2 Phases=1 kV=7.2 kW=9.73 pf=0.97 Vmin=0.75 Vmax=1.075
New Load.355943c0 bus1=L2785529.3 Phases=1 kV=7.2 kW=10.17 pf=0.97 Vmin=0.75 Vmax=1.075
New Load.355942a0 bus1=L2973165.1 Phases=1 kV=7.2 kW=8.870000000000001 pf=0.97 Vmin=0.75 Vmax=1.075
New Load.355938a0 bus1=L2804262.1 Phases=1 kV=7.2 kW=5.32 pf=0.97 Vmin=0.75 Vmax=1.075
New Load.355937a0 bus1=L2841639.1 Phases=1 kV=7.2 kW=11.87 pf=0.97 Vmin=0.75 Vmax=1.075
New Load.21397067a0 bus1=L2729413.1 Phases=1 kV=7.2 kW=5.32 pf=0.97 Vmin=0.75 Vmax=1.075
New Load.226163467a0 bus1=L3120376.1 Phases=1 kV=7.2 kW=11.870000000000001 pf=0.97 Vmin=0.75 Vmax=1.075
New Load.356015a0 bus1=L2916599.1 Phases=1 kV=7.2 kW=8.870000000000001 pf=0.97 Vmin=0.75 Vmax=1.075
New Load.356014a0 bus1=L3235249.1 Phases=1 kV=7.2 kW=3.55 pf=0.97 Vmin=0.75 Vmax=1.075
New Load.356013a0 bus1=L2954348.1 Phases=1 kV=7.2 kW=8.86999999999999 pf=0.97 Vmin=0.75 Vmax=1.075
New Load.356012a0 bus1=L2841615.1 Phases=1 kV=7.2 kW=5.32 pf=0.97 Vmin=0.75 Vmax=1.075
New Load.356011a0 bus1=L3216337.1 Phases=1 kV=7.2 kW=12.3108123731613 pf=0.97 Vmin=0.75 Vmax=1.075
New Load.356010a0 bus1=L3216336.1 Phases=1 kV=7.2 kW=8.870000000000001 pf=0.97 Vmin=0.75 Vmax=1.075
New Load.356009a0 bus1=L2691936.1 Phases=1 kV=7.2 kW=5.32 pf=0.97 Vmin=0.75 Vmax=1.075
New Load.356007a0 bus1=L3141389.1 Phases=1 kV=7.2 kW=8.32 pf=0.97 Vmin=0.75 Vmax=1.075
New Load.2121587a0 bus1=L2860477.1 Phases=1 kV=7.2 kW=5.32 pf=0.97 Vmin=0.75 Vmax=1.075
New Load.226191850a0 bus1=L3270814.1 Phases=1 kV=7.2 kW=11.869999999999996 pf=0.97 Vmin=0.75 Vmax=1.075
New Load.356008a0 bus1=L3197618.1 Phases=1 kV=7.2 kW=5.32 pf=0.97 Vmin=0.75 Vmax=1.075
New Load.355935a0 bus1=L2691973.1 Phases=1 kV=7.2 kW=5.32 pf=0.97 Vmin=0.75 Vmax=1.075
New Load.355936a0 bus1=L2954357.1 Phases=1 kV=7.2 kW=13.3 pf=0.97 Vmin=0.75 Vmax=1.075
New Load.355934a0 bus1=L3048212.1 Phases=1 kV=7.2 kW=3.55 pf=0.97 Vmin=0.75 Vmax=1.075
New Load.355933a0 bus1=L2916598.1 Phases=1 kV=7.2 kW=3.5500000000000003 pf=0.97 Vmin=0.75 Vmax=1.075
New Load.441331c0 bus1=L3235254.3 Phases=1 kV=7.2 kW=10.17 pf=0.97 Vmin=0.75 Vmax=1.075
New Load.2224237380a0 bus1=L3649297.1 Phases=1 kV=7.2 kW=13.3 pf=0.97 Vmin=0.75 Vmax=1.075
New Load.2224237384a0 bus1=L3649298.1 Phases=1 kV=7.2 kW=13.29999999999998 pf=0.97 Vmin=0.75 Vmax=1.075
New Load.2224237391a0 bus1=L3649299.1 Phases=1 kV=7.2 kW=8.87 pf=0.97 Vmin=0.75 Vmax=1.075
New Load.2224237546a0 bus1=L3649300.1 Phases=1 kV=7.2 kW=13.3 pf=0.97 Vmin=0.75 Vmax=1.075
...
