distopf/cases/dss/9500-primary-network/PVSystems_primary.dss
New PVsystem.pv_1075 bus1=L2673319.3 Phases=1 kV=7.2 kVA=6.1 pmpp=6.1
New PVsystem.pv_1073 bus1=L3197641.1 Phases=1 kV=7.2 kVA=5.32 pmpp=5.32
New PVsystem.pv_1087 bus1=L3160106.1 Phases=1 kV=7.2 kVA=8.87 pmpp=8.87
New PVsystem.pv_1037 bus1=L2729428.1 Phases=1 kV=7.2 kVA=5.32 pmpp=5.32
New PVsystem.pv_1169 bus1=L2673317.1 Phases=1 kV=7.2 kVA=5.32 pmpp=5.32
New PVsystem.pv_1107 bus1=L3082992.1 Phases=1 kV=7.2 kVA=5.32 pmpp=5.32
New PVsystem.pv_1001 bus1=L3216348.1 Phases=1 kV=7.2 kVA=5.32 pmpp=5.32
New PVsystem.pv_1071 bus1=L2841627.1 Phases=1 kV=7.2 kVA=5.32 pmpp=5.32
New PVsystem.pv_1053 bus1=L2710544.1 Phases=1 kV=7.2 kVA=5.32 pmpp=5.32
New PVsystem.pv_1147 bus1=L2822867.2 Phases=1 kV=7.2 kVA=5.84 pmpp=5.84
New PVsystem.pv_1023 bus1=L3254214.2 Phases=1 kV=7.2 kVA=9.73 pmpp=9.73
New PVsystem.pv_1105 bus1=L2785513.1 Phases=1 kV=7.2 kVA=8.87 pmpp=8.87
New PVsystem.pv_1137 bus1=L2841616.1 Phases=1 kV=7.2 kVA=8.87 pmpp=8.87
New PVsystem.pv_1013 bus1=L2710543.3 Phases=1 kV=7.2 kVA=10.17 pmpp=10.17
New PVsystem.pv_1047 bus1=L3104155.3 Phases=1 kV=7.2 kVA=10.17 pmpp=10.17
New PVsystem.pv_1005 bus1=L3045895.3 Phases=1 kV=7.2 kVA=10.17 pmpp=10.17
New PVsystem.pv_1119 bus1=L2786274.3 Phases=1 kV=7.2 kVA=10.17 pmpp=10.17
New PVsystem.pv_1027 bus1=L2674051.1 Phases=1 kV=7.2 kVA=5.32 pmpp=5.32
New PVsystem.pv_1149 bus1=L2992657.1 Phases=1 kV=7.2 kVA=8.87 pmpp=8.87
New PVsystem.pv_1095 bus1=L2767409.2 Phases=1 kV=7.2 kVA=9.73 pmpp=9.73
New PVsystem.pv_1121 bus1=L3217064.2 Phases=1 kV=7.2 kVA=9.73 pmpp=9.73
New PVsystem.pv_1131 bus1=L2955077.3 Phases=1 kV=7.2 kVA=10.17 pmpp=10.17
New PVsystem.pv_1125 bus1=L3160862.3 Phases=1 kV=7.2 kVA=6.1 pmpp=6.1
New PVsystem.pv_1017 bus1=L2861197.3 Phases=1 kV=7.2 kVA=6.1 pmpp=6.1
New PVsystem.pv_1021 bus1=L2955005.2 Phases=1 kV=7.2 kVA=5.84 pmpp=5.84
New PVsystem.pv_1097 bus1=L3067478.1 Phases=1 kV=7.2 kVA=13.3 pmpp=13.3
New PVsystem.pv_1161 bus1=L2730149.3 Phases=1 kV=7.2 kVA=6.1 pmpp=6.1
New PVsystem.pv_1111 bus1=L3233412.1 Phases=1 kV=7.2 kVA=17.74 pmpp=17.74
New PVsystem.pv_1183 bus1=L2990098.1 Phases=1 kV=7.2 kVA=17.74 pmpp=17.74
New PVsystem.pv_1155 bus1=L3252336.2 Phases=1 kV=7.2 kVA=14.59 pmpp=14.59
New PVsystem.pv_1041 bus1=L2803199.2 Phases=1 kV=7.2 kVA=19.45 pmpp=19.45
New PVsystem.pv_1179 bus1=L3215203.3 Phases=1 kV=7.2 kVA=20.34 pmpp=20.34
New PVsystem.pv_1113 bus1=L3215203.1 Phases=1 kV=7.2 kVA=17.74 pmpp=17.74
New PVsystem.pv_1117 bus1=L2897768.3 Phases=1 kV=7.2 kVA=10.17 pmpp=10.17
New PVsystem.pv_1035 bus1=L2935551.3 Phases=1 kV=7.2 kVA=6.1 pmpp=6.1
New PVsystem.pv_1083 bus1=L3179650.2 Phases=1 kV=7.2 kVA=5.84 pmpp=5.84
New PVsystem.pv_1127 bus1=L2936214.1 Phases=1 kV=7.2 kVA=8.87 pmpp=8.87
New PVsystem.pv_1143 bus1=L2973148.1 Phases=1 kV=7.2 kVA=8.87 pmpp=8.87
New PVsystem.pv_1043 bus1=L2804272.2 Phases=1 kV=7.2 kVA=5.84 pmpp=5.84
New PVsystem.pv_1003 bus1=L2673331.2 Phases=1 kV=7.2 kVA=19.45 pmpp=19.45
New PVsystem.pv_1057 bus1=L3160113.2 Phases=1 kV=7.2 kVA=9.73 pmpp=9.73
New PVsystem.pv_1173 bus1=L2897789.2 Phases=1 kV=7.2 kVA=5.84 pmpp=5.84
New PVsystem.pv_1015 bus1=L3085410.2 Phases=1 kV=7.2 kVA=5.84 pmpp=5.84
New PVsystem.pv_1159 bus1=L3104144.1 Phases=1 kV=7.2 kVA=3.55 pmpp=3.55
New PVsystem.pv_1153 bus1=L2748143.1 Phases=1 kV=7.2 kVA=8.87 pmpp=8.87
New PVsystem.pv_1167 bus1=L2897792.1 Phases=1 kV=7.2 kVA=5.32 pmpp=5.32
New PVsystem.pv_1103 bus1=L2785538.1 Phases=1 kV=7.2 kVA=8.87 pmpp=8.87
New PVsystem.pv_1091 bus1=L3254231.1 Phases=1 kV=7.2 kVA=3.55 pmpp=3.55
New PVsystem.pv_1059 bus1=L2673318.3 Phases=1 kV=7.2 kVA=10.17 pmpp=10.17
New PVsystem.pv_1025 bus1=L3048965.2 Phases=1 kV=7.2 kVA=14.59 pmpp=14.59
New PVsystem.pv_1055 bus1=L2839305.1 Phases=1 kV=7.2 kVA=5.33 pmpp=5.33
New PVsystem.pv_1171 bus1=L3198347.3 Phases=1 kV=7.2 kVA=6.1 pmpp=6.1
New PVsystem.pv_1139 bus1=L3011293.3 Phases=1 kV=7.2 kVA=20.34 pmpp=20.34
New PVsystem.pv_1051 bus1=L3048937.3 Phases=1 kV=7.2 kVA=6.1 pmpp=6.1
New PVsystem.pv_1079 bus1=L2891575.3 Phases=1 kV=7.2 kVA=6.1 pmpp=6.1
New PVsystem.pv_1061 bus1=L2992556.1 Phases=1 kV=7.2 kVA=6.1 pmpp=6.1
New PVsystem.pv_1093 bus1=L2936279.3 Phases=1 kV=7.2 kVA=10.17 pmpp=10.17
New PVsystem.pv_1039 bus1=L2766721.1 Phases=1 kV=7.2 kVA=8.87 pmpp=8.87
New PVsystem.pv_1123 bus1=L2805036.2 Phases=1 kV=7.2 kVA=3.89 pmpp=3.89
New PVsystem.pv_1009 bus1=L2691946.2 Phases=1 kV=7.2 kVA=5.85 pmpp=5.85
New PVsystem.pv_1045 bus1=L3216347.3 Phases=1 kV=7.2 kVA=6.1 pmpp=6.1
New PVsystem.pv_1065 bus1=L2785523.3 Phases=1 kV=7.2 kVA=6.1 pmpp=6.1
New PVsystem.pv_1175 bus1=L2691951.3 Phases=1 kV=7.2 kVA=10.17 pmpp=10.17
New PVsystem.pv_1181 bus1=L2879076.3 Phases=1 kV=7.2 kVA=4.07 pmpp=4.07
New PVsystem.pv_1007 bus1=L3104126.3 Phases=1 kV=7.2 kVA=4.07 pmpp=4.07
New PVsystem.pv_1011 bus1=L3010565.3 Phases=1 kV=7.2 kVA=4.07 pmpp=4.07
New PVsystem.pv_1099 bus1=L2691945.3 Phases=1 kV=7.2 kVA=10.17 pmpp=10.17
New PVsystem.pv_1133 bus1=L2954350.2 Phases=1 kV=7.2 kVA=6.1 pmpp=6.1
New PVsystem.pv_1151 bus1=L3101194.1 Phases=1 kV=7.2 kVA=30.52 pmpp=30.52
New PVsystem.pv_1145 bus1=L3235243.3 Phases=1 kV=7.2 kVA=10.17 pmpp=10.17
New PVsystem.pv_1089 bus1=L3143999.1 Phases=1 kV=7.2 kVA=8.87 pmpp=8.87
New PVsystem.pv_1165 bus1=L3197637.3 Phases=1 kV=7.2 kVA=4.07 pmpp=4.07
New PVsystem.pv_1135 bus1=L2804283.1 Phases=1 kV=7.2 kVA=8.87 pmpp=8.87
New PVsystem.pv_1033 bus1=L2710510.3 Phases=1 kV=7.2 kVA=4.07 pmpp=4.07
New PVsystem.pv_1067 bus1=L2841638.3 Phases=1 kV=7.2 kVA=6.1 pmpp=6.1
New PVsystem.pv_1157 bus1=L2710521.1 Phases=1 kV=7.2 kVA=8.87 pmpp=8.87
New PVsystem.pv_1031 bus1=L3178981.2 Phases=1 kV=7.2 kVA=9.73 pmpp=9.73
New PVsystem.pv_1129 bus1=L3104134.3 Phases=1 kV=7.2 kVA=10.17 pmpp=10.17
New PVsystem.pv_1085 bus1=L2897772.1 Phases=1 kV=7.2 kVA=5.32 pmpp=5.32
New PVsystem.pv_1077 bus1=L2991943.3 Phases=1 kV=7.2 kVA=10.17 pmpp=10.17
New PVsystem.pv_1141 bus1=L2766750.3 Phases=1 kV=7.2 kVA=15.26 pmpp=15.26
New PVsystem.pv_1109 bus1=L3178997.3 Phases=1 kV=7.2 kVA=6.1 pmpp=6.1
New PVsystem.pv_2 bus1=M2000402.1 Phases=1 kV=7.2 kVA=11.25 pmpp=11.25
New PVsystem.pv_4 bus1=M2000403.1 Phases=1 kV=7.2 kVA=12.56 pmpp=12.56
New PVsystem.pv_6 bus1=M2000404.1 Phases=1 kV=7.2 kVA=9.71 pmpp=9.71
New PVsystem.pv_8 bus1=M2000405.1 Phases=1 kV=7.2 kVA=14.93 pmpp=14.93
New PVsystem.pv_10 bus1=M2000406.1 Phases=1 kV=7.2 kVA=12.6 pmpp=12.6
New PVsystem.pv_12 bus1=M2000407.1 Phases=1 kV=7.2 kVA=11.92 pmpp=11.92
New PVsystem.pv_14 bus1=M2000408.1 Phases=1 kV=7.2 kVA=12.44 pmpp=12.44
New PVsystem.pv_16 bus1=M2000409.1 Phases=1 kV=7.2 kVA=12.98 pmpp=12.98
New PVsystem.pv_18 bus1=M2000410.1 Phases=1 kV=7.2 kVA=14.49 pmpp=14.49
New PVsystem.pv_20 bus1=M2000411.1 Phases=1 kV=7.2 kVA=9.98 pmpp=9.98
New PVsystem.pv_22 bus1=M2000412.1 Phases=1 kV=7.2 kVA=19.62 pmpp=19.62
New PVsystem.pv_24 bus1=M2000413.1 Phases=1 kV=7.2 kVA=10.63 pmpp=10.63
New PVsystem.pv_26 bus1=M2000414.1 Phases=1 kV=7.2 kVA=10.59 pmpp=10.59
New PVsystem.pv_28 bus1=M2000415.1 Phases=1 kV=7.2 kVA=10.77 pmpp=10.77
New PVsystem.pv_30 bus1=M2000702.2 Phases=1 kV=7.2 kVA=10.52 pmpp=10.52
New PVsystem.pv_32 bus1=M2000703.2 Phases=1 kV=7.2 kVA=9.54 pmpp=9.54
New PVsystem.pv_34 bus1=M2000704.2 Phases=1 kV=7.2 kVA=10.22 pmpp=10.22
New PVsystem.pv_36 bus1=M2000705.2 Phases=1 kV=7.2 kVA=9.67 pmpp=9.67
New PVsystem.pv_38 bus1=M2000706.2 Phases=1 kV=7.2 kVA=11.79 pmpp=11.79
New PVsystem.pv_40 bus1=M2000707.2 Phases=1 kV=7.2 kVA=9.9 pmpp=9.9
New PVsystem.pv_42 bus1=M2000708.2 Phases=1 kV=7.2 kVA=12.22 pmpp=12.22
New PVsystem.pv_44 bus1=M2000709.2 Phases=1 kV=7.2 kVA=8.71 pmpp=8.71
New PVsystem.pv_46 bus1=M2000710.2 Phases=1 kV=7.2 kVA=10.45 pmpp=10.45
New PVsystem.pv_48 bus1=M2000711.2 Phases=1 kV=7.2 kVA=7.04 pmpp=7.04
New PVsystem.pv_50 bus1=M2000712.2 Phases=1 kV=7.2 kVA=11.2 pmpp=11.2
New PVsystem.pv_52 bus1=M2000713.2 Phases=1 kV=7.2 kVA=12.78 pmpp=12.78
New PVsystem.pv_54 bus1=M2000714.2 Phases=1 kV=7.2 kVA=9.05 pmpp=9.05
New PVsystem.pv_56 bus1=M2000715.2 Phases=1 kV=7.2 kVA=11.25 pmpp=11.25
New PVsystem.pv_58 bus1=M2000902.3 Phases=1 kV=7.2 kVA=11.25 pmpp=11.25
New PVsystem.pv_60 bus1=M2000903.3 Phases=1 kV=7.2 kVA=12.56 pmpp=12.56
New PVsystem.pv_62 bus1=M2000904.3 Phases=1 kV=7.2 kVA=9.71 pmpp=9.71
New PVsystem.pv_64 bus1=M2000905.3 Phases=1 kV=7.2 kVA=11.25 pmpp=11.25
New PVsystem.pv_66 bus1=M2000906.3 Phases=1 kV=7.2 kVA=11.25 pmpp=11.25
New PVsystem.pv_68 bus1=M2000907.3 Phases=1 kV=7.2 kVA=11.25 pmpp=11.25
New PVsystem.pv_70 bus1=M2000908.3 Phases=1 kV=7.2 kVA=11.25 pmpp=11.25
New PVsystem.pv_72 bus1=M2000909.3 Phases=1 kV=7.2 kVA=11.25 pmpp=11.25
New PVsystem.pv_74 bus1=M2000910.3 Phases=1 kV=7.2 kVA=11.25 pmpp=11.25
New PVsystem.pv_76 bus1=M2000911.3 Phases=1 kV=7.2 kVA=11.25 pmpp=11.25
New PVsystem.pv_78 bus1=M2000912.3 Phases=1 kV=7.2 kVA=11.25 pmpp=11.25
New PVsystem.pv_80 bus1=M2000913.3 Phases=1 kV=7.2 kVA=11.25 pmpp=11.25
New PVsystem.pv_82 bus1=M2000914.3 Phases=1 kV=7.2 kVA=11.25 pmpp=11.25
New PVsystem.pv_84 bus1=M2000915.3 Phases=1 kV=7.2 kVA=11.25 pmpp=11.25
New PVsystem.pv_86 bus1=M2001002.2 Phases=1 kV=7.2 kVA=11.25 pmpp=11.25
New PVsystem.pv_88 bus1=M2001003.2 Phases=1 kV=7.2 kVA=12.56 pmpp=12.56
New PVsystem.pv_90 bus1=M2001004.2 Phases=1 kV=7.2 kVA=9.71 pmpp=9.71
New PVsystem.pv_92 bus1=M2001005.2 Phases=1 kV=7.2 kVA=11.08 pmpp=11.08
New PVsystem.pv_94 bus1=M2001006.2 Phases=1 kV=7.2 kVA=9.76 pmpp=9.76
New PVsystem.pv_96 bus1=M2001007.2 Phases=1 kV=7.2 kVA=9.36 pmpp=9.36
New PVsystem.pv_98 bus1=M2001008.2 Phases=1 kV=7.2 kVA=12.72 pmpp=12.72
New PVsystem.pv_100 bus1=M2001009.2 Phases=1 kV=7.2 kVA=13.97 pmpp=13.97
New PVsystem.pv_102 bus1=M2001010.2 Phases=1 kV=7.2 kVA=16.9 pmpp=16.9
New PVsystem.pv_104 bus1=M2001011.2 Phases=1 kV=7.2 kVA=7.48 pmpp=7.48
New PVsystem.pv_106 bus1=M2001012.2 Phases=1 kV=7.2 kVA=13.75 pmpp=13.75
New PVsystem.pv_108 bus1=M2001013.2 Phases=1 kV=7.2 kVA=17.57 pmpp=17.57
New PVsystem.pv_110 bus1=M2001014.2 Phases=1 kV=7.2 kVA=28.33 pmpp=28.33
New PVsystem.pv_112 bus1=M2001015.2 Phases=1 kV=7.2 kVA=24.22 pmpp=24.22
New PVsystem.pv_114 bus1=M2001202.3 Phases=1 kV=7.2 kVA=12.43 pmpp=12.43
New PVsystem.pv_116 bus1=M2001203.3 Phases=1 kV=7.2 kVA=16.02 pmpp=16.02
New PVsystem.pv_118 bus1=M2001204.3 Phases=1 kV=7.2 kVA=12.95 pmpp=12.95
New PVsystem.pv_120 bus1=M2001205.3 Phases=1 kV=7.2 kVA=8.56 pmpp=8.56
New PVsystem.pv_122 bus1=M2001206.3 Phases=1 kV=7.2 kVA=10.53 pmpp=10.53
New PVsystem.pv_124 bus1=M2001207.3 Phases=1 kV=7.2 kVA=8.85 pmpp=8.85
New PVsystem.pv_126 bus1=M2001208.3 Phases=1 kV=7.2 kVA=11.89 pmpp=11.89
New PVsystem.pv_128 bus1=M2001209.3 Phases=1 kV=7.2 kVA=13.93 pmpp=13.93
New PVsystem.pv_130 bus1=M2001210.3 Phases=1 kV=7.2 kVA=13.44 pmpp=13.44
New PVsystem.pv_132 bus1=M2001211.3 Phases=1 kV=7.2 kVA=23.42 pmpp=23.42
New PVsystem.pv_134 bus1=M2001212.3 Phases=1 kV=7.2 kVA=17.88 pmpp=17.88
New PVsystem.pv_136 bus1=M2001213.3 Phases=1 kV=7.2 kVA=18.08 pmpp=18.08
New PVsystem.pv_138 bus1=M2001214.3 Phases=1 kV=7.2 kVA=16.87 pmpp=16.87
New PVsystem.pv_140 bus1=M2001215.3 Phases=1 kV=7.2 kVA=21.39 pmpp=21.39
New PVsystem.pv_142 bus1=M2001302.1 Phases=1 kV=7.2 kVA=8.82 pmpp=8.82
New PVsystem.pv_144 bus1=M2001303.1 Phases=1 kV=7.2 kVA=12.91 pmpp=12.91
New PVsystem.pv_146 bus1=M2001304.1 Phases=1 kV=7.2 kVA=9.62 pmpp=9.62
New PVsystem.pv_148 bus1=M2001305.1 Phases=1 kV=7.2 kVA=10.86 pmpp=10.86
New PVsystem.pv_150 bus1=M2001306.1 Phases=1 kV=7.2 kVA=9.47 pmpp=9.47
New PVsystem.pv_152 bus1=M2001307.1 Phases=1 kV=7.2 kVA=13.99 pmpp=13.99
New PVsystem.pv_154 bus1=M2001308.1 Phases=1 kV=7.2 kVA=14.65 pmpp=14.65
New PVsystem.pv_156 bus1=M2001309.1 Phases=1 kV=7.2 kVA=8.25 pmpp=8.25
New PVsystem.pv_158 bus1=M2001310.1 Phases=1 kV=7.2 kVA=18.15 pmpp=18.15
New PVsystem.pv_160 bus1=M2001311.1 Phases=1 kV=7.2 kVA=16.04 pmpp=16.04
New PVsystem.pv_162 bus1=M2001312.1 Phases=1 kV=7.2 kVA=14.54 pmpp=14.54
New PVsystem.pv_164 bus1=M2001313.1 Phases=1 kV=7.2 kVA=22.37 pmpp=22.37
New PVsystem.pv_166 bus1=M2001314.1 Phases=1 kV=7.2 kVA=21.45 pmpp=21.45
New PVsystem.pv_168 bus1=M2001315.1 Phases=1 kV=7.2 kVA=19.93 pmpp=19.93
New PVsystem.pv_170 bus1=M2001400.3 Phases=1 kV=7.2 kVA=40.52 pmpp=40.52
New PVsystem.pv_1101 bus1=L3104132.1 Phases=1 kV=7.2 kVA=5.32 pmpp=5.32
New PVsystem.pv_1029 bus1=L2804252.1 Phases=1 kV=7.2 kVA=8.87 pmpp=8.87
New PVsystem.pv_1019 bus1=L2841636.2 Phases=1 kV=7.2 kVA=5.84 pmpp=5.84
New PVsystem.pv_1177 bus1=L2673308.2 Phases=1 kV=7.2 kVA=14.59 pmpp=14.59
New PVsystem.pv_1081 bus1=L2897767.3 Phases=1 kV=7.2 kVA=10.17 pmpp=10.17
New PVsystem.pv_1115 bus1=L3728043.1 Phases=1 kV=7.2 kVA=13.3 pmpp=13.3
New PVsystem.pv_1069 bus1=L3216368.3 Phases=1 kV=7.2 kVA=6.1 pmpp=6.1
New PVsystem.pv_1049 bus1=L2814529.3 Phases=1 kV=7.2 kVA=20.34 pmpp=20.34
New PVsystem.pv_1063 bus1=L2814529.1 Phases=1 kV=7.2 kVA=17.74 pmpp=17.74
New PVsystem.pv_1163 bus1=L2879078.1 Phases=1 kV=7.2 kVA=5.32 pmpp=5.32
