distopf/cases/dss/9500-primary-network/final9500node_Power_elem_kVA.txt

CIRCUIT ELEMENT POWER FLOW

(Power Flow into element from indicated Bus)

Power Delivery Elements

  Bus                   Phase     kW     +j   kvar         kVA         PF

ELEMENT = "Vsource.SOURCE"
SOURCEBUS                   1     -3289.4 +j   -402.2     3313.9       0.9926
SOURCEBUS                   2     -3126.9 +j   -489.4     3165.0       0.9880
SOURCEBUS                   3     -3132.6 +j   -305.1     3147.4       0.9953
   TERMINAL TOTAL ............... -9548.8 +j  -1196.7     9623.5       0.9922
SOURCEBUS                   0         0.0 +j      0.0        0.0       1.0000
SOURCEBUS                   0         0.0 +j      0.0        0.0       1.0000
SOURCEBUS                   0         0.0 +j      0.0        0.0       1.0000
   TERMINAL TOTAL ...............     0.0 +j      0.0        0.0       1.0000

ELEMENT = "Line.HVMV115B1_SW"
HVMV115_HSB1                1      3289.4 +j    368.7     3310.0       0.9938
HVMV115_HSB1                2      3126.9 +j    458.9     3160.4       0.9894
HVMV115_HSB1                3      3132.6 +j    274.9     3144.6       0.9962
   TERMINAL TOTAL ...............  9548.8 +j   1102.6     9612.3       0.9934
HVMV115_HSB2                1     -3289.4 +j   -368.7     3310.0       0.9938
HVMV115_HSB2                2     -3126.9 +j   -458.9     3160.4       0.9894
HVMV115_HSB2                3     -3132.6 +j   -274.9     3144.6       0.9962
   TERMINAL TOTAL ............... -9548.8 +j  -1102.6     9612.3       0.9934

ELEMENT = "Line.HVMV69S1B4_SW"
REGXFMR_HVMV69SUB1_LSB1     1      3182.0 +j    359.3     3202.3       0.9937
REGXFMR_HVMV69SUB1_LSB1     2      3348.5 +j    420.9     3374.9       0.9922
REGXFMR_HVMV69SUB1_LSB1     3      3003.2 +j    243.2     3013.0       0.9967
   TERMINAL TOTAL ...............  9533.8 +j   1023.4     9588.6       0.9943
HVMV69SUB1_LSB2             1     -3182.0 +j   -359.3     3202.3       0.9937
HVMV69SUB1_LSB2             2     -3348.5 +j   -420.9     3374.9       0.9922
HVMV69SUB1_LSB2             3     -3003.2 +j   -243.2     3013.0       0.9967
   TERMINAL TOTAL ............... -9533.8 +j  -1023.4     9588.6       0.9943

ELEMENT = "Line.HVMV69S1B1_SW"
HVMV69SUB1_LSB2             1      1558.9 +j    646.8     1687.8       0.9237
HVMV69SUB1_LSB2             2      1399.7 +j    839.6     1632.2       0.8576
HVMV69SUB1_LSB2             3      1343.3 +j    397.1     1400.8       0.9590
   TERMINAL TOTAL ...............  4301.9 +j   1883.5     4696.1       0.9160
HVMV69SUB1_HSB              1     -1558.9 +j   -646.8     1687.8       0.9237
HVMV69SUB1_HSB              2     -1399.7 +j   -839.6     1632.2       0.8576
HVMV69SUB1_HSB              3     -1343.3 +j   -397.1     1400.8       0.9590
   TERMINAL TOTAL ............... -4301.9 +j  -1883.5     4696.1       0.9160

ELEMENT = "Line.HVMV_SUB_CONNECTOR"
HVMV11SUB1_LSB              1      1553.7 +j    615.7     1671.2       0.9297
HVMV11SUB1_LSB              2      1394.8 +j    810.4     1613.2       0.8646
HVMV11SUB1_LSB              3      1339.7 +j    375.7     1391.4       0.9628
   TERMINAL TOTAL ...............  4288.1 +j   1801.9     4651.3       0.9219
HVMV_SUB1_48332             1     -1553.7 +j   -615.7     1671.2       0.9297
HVMV_SUB1_48332             2     -1394.8 +j   -810.4     1613.2       0.8646
HVMV_SUB1_48332             3     -1339.7 +j   -375.7     1391.4       0.9628
   TERMINAL TOTAL ............... -4288.1 +j  -1801.9     4651.3       0.9219

ELEMENT = "Line.LN5710794-3"
HVMV_SUB1_48332             1      1553.7 +j    615.7     1671.2       0.9297
HVMV_SUB1_48332             2      1394.8 +j    810.4     1613.2       0.8646
HVMV_SUB1_48332             3      1339.7 +j    375.7     1391.4       0.9628
   TERMINAL TOTAL ...............  4288.1 +j   1801.9     4651.3       0.9219
D5710794-3_INT              1     -1553.5 +j   -615.4     1670.9       0.9297
D5710794-3_INT              2     -1394.6 +j   -810.1     1612.8       0.8647
D5710794-3_INT              3     -1339.6 +j   -375.5     1391.3       0.9629
   TERMINAL TOTAL ............... -4287.7 +j  -1800.9     4650.6       0.9220

ELEMENT = "Line.HVMV69S1B2_SW"
D5710794-3_INT              1      1553.5 +j    615.4     1670.9       0.9297
D5710794-3_INT              2      1394.6 +j    810.1     1612.8       0.8647
D5710794-3_INT              3      1339.6 +j    375.5     1391.3       0.9629
   TERMINAL TOTAL ...............  4287.7 +j   1800.9     4650.6       0.9220
E192860                     1     -1553.5 +j   -615.4     1670.9       0.9297
E192860                     2     -1394.6 +j   -810.1     1612.8       0.8647
E192860                     3     -1339.6 +j   -375.5     1391.3       0.9629
   TERMINAL TOTAL ............... -4287.7 +j  -1800.9     4650.6       0.9220

ELEMENT = "Line.HVMV69S1B3_SW"
HVMV69SUB1_LSB2             1      1623.1 +j   -287.5     1648.4      -0.9847
HVMV69SUB1_LSB2             2      1948.8 +j   -418.6     1993.3      -0.9777
HVMV69SUB1_LSB2             3      1659.9 +j   -153.9     1667.1      -0.9957
   TERMINAL TOTAL ...............  5231.9 +j   -860.1     5302.1      -0.9868
HVMV69S1S2_1                1     -1623.1 +j    287.5     1648.4      -0.9847
HVMV69S1S2_1                2     -1948.8 +j    418.6     1993.3      -0.9777
HVMV69S1S2_1                3     -1659.9 +j    153.9     1667.1      -0.9957
   TERMINAL TOTAL ............... -5231.9 +j    860.1     5302.1      -0.9868

ELEMENT = "Line.HVMV69S1S2-1"
HVMV69S1S2_1                1      1623.1 +j   -287.5     1648.4      -0.9847
HVMV69S1S2_1                2      1948.8 +j   -418.6     1993.3      -0.9777
HVMV69S1S2_1                3      1659.9 +j   -153.9     1667.1      -0.9957
   TERMINAL TOTAL ...............  5231.9 +j   -860.1     5302.1      -0.9868
HVMV69S1S2_2                1     -1623.2 +j    281.7     1647.4      -0.9853
HVMV69S1S2_2                2     -1948.4 +j    412.8     1991.7      -0.9783
HVMV69S1S2_2                3     -1659.4 +j    147.9     1666.0      -0.9961
   TERMINAL TOTAL ............... -5231.0 +j    842.3     5298.4      -0.9873

ELEMENT = "Line.HVMV69S1S2-2"
HVMV69S1S2_2                1      1623.2 +j   -281.7     1647.4      -0.9853
HVMV69S1S2_2                2      1948.4 +j   -412.8     1991.7      -0.9783
HVMV69S1S2_2                3      1659.4 +j   -147.9     1666.0      -0.9961
   TERMINAL TOTAL ...............  5231.0 +j   -842.3     5298.4      -0.9873
HVMV69S1S2_3                1     -1623.2 +j    277.3     1646.7      -0.9857
HVMV69S1S2_3                2     -1948.1 +j    408.4     1990.5      -0.9787
HVMV69S1S2_3                3     -1659.0 +j    143.3     1665.1      -0.9963
   TERMINAL TOTAL ............... -5230.3 +j    829.0     5295.6      -0.9877

ELEMENT = "Line.HVMV69S1S2-3"
HVMV69S1S2_3                1      1623.2 +j   -277.3     1646.7      -0.9857
HVMV69S1S2_3                2      1948.1 +j   -408.4     1990.5      -0.9787
HVMV69S1S2_3                3      1659.0 +j   -143.3     1665.1      -0.9963
   TERMINAL TOTAL ...............  5230.3 +j   -829.0     5295.6      -0.9877
HVMV69S1S2_4                1     -1623.2 +j    272.9     1645.9      -0.9862
HVMV69S1S2_4                2     -1947.8 +j    404.0     1989.3      -0.9792
HVMV69S1S2_4                3     -1658.5 +j    138.7     1664.3      -0.9965
   TERMINAL TOTAL ............... -5229.6 +j    815.7     5292.8      -0.9881

ELEMENT = "Line.HVMV69S1S2-4"
HVMV69S1S2_4                1      1623.2 +j   -272.9     1645.9      -0.9862
HVMV69S1S2_4                2      1947.8 +j   -404.0     1989.3      -0.9792
HVMV69S1S2_4                3      1658.5 +j   -138.7     1664.3      -0.9965
   TERMINAL TOTAL ...............  5229.6 +j   -815.7     5292.8      -0.9881
HVMV69S1S2_5                1     -1623.2 +j    261.3     1644.1      -0.9873
HVMV69S1S2_5                2     -1947.1 +j    392.3     1986.2      -0.9803
HVMV69S1S2_5                3     -1657.4 +j    126.6     1662.3      -0.9971
   TERMINAL TOTAL ............... -5227.7 +j    780.1     5285.6      -0.9890

ELEMENT = "Line.HVMV69S1S2-5"
HVMV69S1S2_5                1      1623.2 +j   -261.3     1644.1      -0.9873
HVMV69S1S2_5                2      1947.1 +j   -392.3     1986.2      -0.9803
HVMV69S1S2_5                3      1657.4 +j   -126.6     1662.3      -0.9971
   TERMINAL TOTAL ...............  5227.7 +j   -780.1     5285.6      -0.9890
HVMV69S1S2_6                1     -1623.2 +j    249.6     1642.3      -0.9884
HVMV69S1S2_6                2     -1946.3 +j    380.5     1983.1      -0.9814
HVMV69S1S2_6                3     -1656.3 +j    114.4     1660.3      -0.9976
   TERMINAL TOTAL ............... -5225.8 +j    744.6     5278.6      -0.9900

ELEMENT = "Line.HVMV69S1S2-6"
HVMV69S1S2_6                1      1623.2 +j   -249.6     1642.3      -0.9884
HVMV69S1S2_6                2      1946.3 +j   -380.5     1983.1      -0.9814
HVMV69S1S2_6                3      1656.3 +j   -114.4     1660.3      -0.9976
   TERMINAL TOTAL ...............  5225.8 +j   -744.6     5278.6      -0.9900
HVMV69S1S2_7                1     -1623.2 +j    238.0     1640.5      -0.9894
HVMV69S1S2_7                2     -1945.5 +j    368.8     1980.2      -0.9825
HVMV69S1S2_7                3     -1655.2 +j    102.3     1658.4      -0.9981
   TERMINAL TOTAL ............... -5223.9 +j    709.0     5271.8      -0.9909

ELEMENT = "Line.HVMV69S1S2-7"
HVMV69S1S2_7                1      1623.2 +j   -238.0     1640.5      -0.9894
HVMV69S1S2_7                2      1945.5 +j   -368.8     1980.2      -0.9825
HVMV69S1S2_7                3      1655.2 +j   -102.3     1658.4      -0.9981
   TERMINAL TOTAL ...............  5223.9 +j   -709.0     5271.8      -0.9909
HVMV69S1S2_8                1     -1623.2 +j    232.2     1639.7      -0.9899
HVMV69S1S2_8                2     -1945.1 +j    362.9     1978.7      -0.9830
HVMV69S1S2_8                3     -1654.7 +j     96.2     1657.4      -0.9983
   TERMINAL TOTAL ............... -5223.0 +j    691.3     5268.5      -0.9914

ELEMENT = "Line.HVMV69S1S2-8"
HVMV69S1S2_8                1      1623.2 +j   -232.2     1639.7      -0.9899
HVMV69S1S2_8                2      1945.1 +j   -362.9     1978.7      -0.9830
HVMV69S1S2_8                3      1654.7 +j    -96.2     1657.4      -0.9983
   TERMINAL TOTAL ...............  5223.0 +j   -691.3     5268.5      -0.9914
HVMV69S1S2_9                1     -1623.2 +j    226.4     1638.9      -0.9904
HVMV69S1S2_9                2     -1944.7 +j    357.0     1977.2      -0.9836
HVMV69S1S2_9                3     -1654.1 +j     90.1     1656.5      -0.9985
   TERMINAL TOTAL ............... -5222.0 +j    673.5     5265.3      -0.9918

ELEMENT = "Line.HVMV69S1S2-9"
HVMV69S1S2_9                1      1623.2 +j   -226.4     1638.9      -0.9904
HVMV69S1S2_9                2      1944.7 +j   -357.0     1977.2      -0.9836
HVMV69S1S2_9                3      1654.1 +j    -90.1     1656.5      -0.9985
   TERMINAL TOTAL ...............  5222.0 +j   -673.5     5265.3      -0.9918
HVMV69S1S2_10               1     -1623.2 +j    220.5     1638.1      -0.9909
HVMV69S1S2_10               2     -1944.4 +j    351.2     1975.8      -0.9841
HVMV69S1S2_10               3     -1653.5 +j     84.0     1655.7      -0.9987
   TERMINAL TOTAL ............... -5221.1 +j    655.7     5262.1      -0.9922

ELEMENT = "Line.HVMV69S2B3_SW"
HVMV69S1S2_10               1      1623.2 +j   -220.5     1638.1      -0.9909
HVMV69S1S2_10               2      1944.4 +j   -351.2     1975.8      -0.9841
HVMV69S1S2_10               3      1653.5 +j    -84.0     1655.7      -0.9987
   TERMINAL TOTAL ...............  5221.1 +j   -655.7     5262.1      -0.9922
HVMV69SUB2_LNB              1     -1623.2 +j    220.5     1638.1      -0.9909
HVMV69SUB2_LNB              2     -1944.4 +j    351.2     1975.8      -0.9841
HVMV69SUB2_LNB              3     -1653.5 +j     84.0     1655.7      -0.9987
   TERMINAL TOTAL ............... -5221.1 +j    655.7     5262.1      -0.9922

ELEMENT = "Line.HVMV69S2B1_SW"
HVMV69SUB2_LNB              1       959.1 +j    198.7      979.4       0.9792
HVMV69SUB2_LNB              2      1124.1 +j    221.3     1145.7       0.9812
HVMV69SUB2_LNB              3       869.8 +j    222.2      897.7       0.9689
   TERMINAL TOTAL ...............  2953.0 +j    642.2     3022.0       0.9772
HVMV69SUB2_HSB              1      -959.1 +j   -198.7      979.4       0.9792
HVMV69SUB2_HSB              2     -1124.1 +j   -221.3     1145.7       0.9812
HVMV69SUB2_HSB              3      -869.8 +j   -222.2      897.7       0.9689
   TERMINAL TOTAL ............... -2953.0 +j   -642.2     3022.0       0.9772

ELEMENT = "Line.HVMV69S2B2_SW"
HVMV11SUB2_LSB              1       957.3 +j    188.2      975.6       0.9812
HVMV11SUB2_LSB              2      1121.7 +j    206.9     1140.7       0.9834
HVMV11SUB2_LSB              3       868.3 +j    213.4      894.1       0.9711
   TERMINAL TOTAL ...............  2947.3 +j    608.5     3009.5       0.9793
M1047300                    1      -957.3 +j   -188.2      975.6       0.9812
M1047300                    2     -1121.7 +j   -206.9     1140.7       0.9834
M1047300                    3      -868.3 +j   -213.4      894.1       0.9711
   TERMINAL TOTAL ............... -2947.3 +j   -608.5     3009.5       0.9793

ELEMENT = "Line.HVMV69S2B4_SW"
HVMV69SUB2_LNB              1       664.1 +j   -419.2      785.4      -0.8456
HVMV69SUB2_LNB              2       820.2 +j   -572.5     1000.2      -0.8200
HVMV69SUB2_LNB              3       783.8 +j   -306.2      841.5      -0.9314
   TERMINAL TOTAL ...............  2268.1 +j  -1297.9     2613.2      -0.8679
HVMV69S2S3_1                1      -664.1 +j    419.2      785.4      -0.8456
HVMV69S2S3_1                2      -820.2 +j    572.5     1000.2      -0.8200
HVMV69S2S3_1                3      -783.8 +j    306.2      841.5      -0.9314
   TERMINAL TOTAL ............... -2268.1 +j   1297.9     2613.2      -0.8679

ELEMENT = "Line.HVMV69S2S3-1"
HVMV69S2S3_1                1       664.1 +j   -419.2      785.4      -0.8456
HVMV69S2S3_1                2       820.2 +j   -572.5     1000.2      -0.8200
HVMV69S2S3_1                3       783.8 +j   -306.2      841.5      -0.9314
   TERMINAL TOTAL ...............  2268.1 +j  -1297.9     2613.2      -0.8679
HVMV69S2S3_2                1      -665.6 +j    390.7      771.8      -0.8624
HVMV69S2S3_2                2      -819.6 +j    542.6      982.9      -0.8339
HVMV69S2S3_2                3      -781.9 +j    276.8      829.5      -0.9427
   TERMINAL TOTAL ............... -2267.1 +j   1210.1     2569.8      -0.8822

ELEMENT = "Line.HVMV69S3B1_SW"
HVMV69S2S3_2                1       665.6 +j   -390.7      771.8      -0.8624
HVMV69S2S3_2                2       819.6 +j   -542.6      982.9      -0.8339
HVMV69S2S3_2                3       781.9 +j   -276.8      829.5      -0.9427
   TERMINAL TOTAL ...............  2267.1 +j  -1210.1     2569.8      -0.8822
HVMV69SUB3_HSB              1      -665.6 +j    390.7      771.8      -0.8624
HVMV69SUB3_HSB              2      -819.6 +j    542.6      982.9      -0.8339
HVMV69SUB3_HSB              3      -781.9 +j    276.8      829.5      -0.9427
   TERMINAL TOTAL ............... -2267.1 +j   1210.1     2569.8      -0.8822

ELEMENT = "Line.HVMV69S3B2_SW"
HVMV11SUB3_LSB              1       664.5 +j   -397.2      774.2      -0.8583
HVMV11SUB3_LSB              2       817.8 +j   -553.1      987.3      -0.8283
HVMV11SUB3_LSB              3       780.6 +j   -284.4      830.8      -0.9396
   TERMINAL TOTAL ...............  2262.9 +j  -1234.7     2577.9      -0.8778
E203026                     1      -664.5 +j    397.2      774.2      -0.8583
E203026                     2      -817.8 +j    553.1      987.3      -0.8283
E203026                     3      -780.6 +j    284.4      830.8      -0.9396
   TERMINAL TOTAL ............... -2262.9 +j   1234.7     2577.9      -0.8778

ELEMENT = "Line.LN5815900-1"
E192860                     1      1553.5 +j    615.4     1670.9       0.9297
E192860                     2      1394.6 +j    810.1     1612.8       0.8647
E192860                     3      1339.6 +j    375.5     1391.3       0.9629
   TERMINAL TOTAL ...............  4287.7 +j   1800.9     4650.6       0.9220
M1209817                    1     -1553.3 +j   -615.0     1670.6       0.9298
M1209817                    2     -1394.4 +j   -809.7     1612.5       0.8648
M1209817                    3     -1339.6 +j   -375.2     1391.1       0.9629
   TERMINAL TOTAL ............... -4287.3 +j  -1799.9     4649.8       0.9220

ELEMENT = "Line.LN5742828-1"
M1209817                    1      1553.3 +j    615.0     1670.6       0.9298
M1209817                    2      1394.4 +j    809.7     1612.5       0.8648
M1209817                    3      1339.6 +j    375.2     1391.1       0.9629
   TERMINAL TOTAL ...............  4287.3 +j   1799.9     4649.8       0.9220
L2801909                    1     -1553.0 +j   -614.6     1670.2       0.9298
L2801909                    2     -1394.2 +j   -809.2     1612.0       0.8649
L2801909                    3     -1339.5 +j   -374.9     1391.0       0.9630
   TERMINAL TOTAL ............... -4286.8 +j  -1798.7     4648.8       0.9221

ELEMENT = "Line.LN5742828-2"
L2801909                    1      1553.0 +j    614.6     1670.2       0.9298
L2801909                    2      1394.2 +j    809.2     1612.0       0.8649
L2801909                    3      1332.4 +j    373.1     1383.7       0.9630
   TERMINAL TOTAL ...............  4279.7 +j   1796.9     4641.6       0.9220
M1209814                    1     -1552.3 +j   -613.4     1669.1       0.9300
M1209814                    2     -1393.6 +j   -807.8     1610.8       0.8652
M1209814                    3     -1332.3 +j   -372.3     1383.3       0.9631
   TERMINAL TOTAL ............... -4278.2 +j  -1793.5     4638.9       0.9222

ELEMENT = "Line.LN5473414-1"
M1209814                    1      1552.3 +j    613.4     1669.1       0.9300
M1209814                    2      1393.6 +j    807.8     1610.8       0.8652
M1209814                    3      1332.3 +j    372.3     1383.3       0.9631
   TERMINAL TOTAL ...............  4278.2 +j   1793.5     4638.9       0.9222
M1209811                    1     -1551.2 +j   -611.5     1667.4       0.9303
M1209811                    2     -1392.7 +j   -805.8     1609.0       0.8656
M1209811                    3     -1332.0 +j   -370.9     1382.7       0.9634
   TERMINAL TOTAL ............... -4276.0 +j  -1788.1     4634.8       0.9226

ELEMENT = "Line.LN5714974-1"
M1209811                    1      1551.2 +j    611.5     1667.4       0.9303
M1209811                    2      1392.7 +j    805.8     1609.0       0.8656
M1209811                    3      1332.0 +j    370.9     1382.7       0.9634
   TERMINAL TOTAL ...............  4276.0 +j   1788.1     4634.8       0.9226
M1209807                    1     -1550.0 +j   -609.3     1665.5       0.9307
M1209807                    2     -1391.6 +j   -803.4     1606.9       0.8660
M1209807                    3     -1331.7 +j   -369.3     1382.0       0.9636
   TERMINAL TOTAL ............... -4273.3 +j  -1782.1     4630.0       0.9230

ELEMENT = "Line.LN5896798-1"
M1209807                    1      1550.0 +j    609.3     1665.5       0.9307
M1209807                    2      1391.6 +j    803.4     1606.9       0.8660
M1209807                    3      1331.7 +j    369.3     1382.0       0.9636
   TERMINAL TOTAL ...............  4273.3 +j   1782.1     4630.0       0.9230
M1209805                    1     -1549.6 +j   -608.6     1664.8       0.9308
M1209805                    2     -1391.2 +j   -802.5     1606.1       0.8662
M1209805                    3     -1331.6 +j   -368.8     1381.7       0.9637
   TERMINAL TOTAL ............... -4272.4 +j  -1779.9     4628.3       0.9231

ELEMENT = "Line.LN5775442-1"
M1209805                    1      1549.6 +j    608.6     1664.8       0.9308
M1209805                    2      1391.2 +j    802.5     1606.1       0.8662
M1209805                    3      1331.6 +j    368.8     1381.7       0.9637
   TERMINAL TOTAL ...............  4272.4 +j   1779.9     4628.3       0.9231
L2823592                    1     -1548.5 +j   -606.8     1663.1       0.9311
L2823592                    2     -1390.3 +j   -800.4     1604.3       0.8666
L2823592                    3     -1331.4 +j   -367.4     1381.1       0.9640
   TERMINAL TOTAL ............... -4270.2 +j  -1774.6     4624.2       0.9234

ELEMENT = "Line.CAP_1A"
L2823592                    1      1544.7 +j    605.8     1659.3       0.9310
   TERMINAL TOTAL ...............  1544.7 +j    605.8     1659.3       0.9310
L2823592_CAP                1     -1544.7 +j   -605.8     1659.2       0.9310
   TERMINAL TOTAL ............... -1544.7 +j   -605.8     1659.2       0.9310

ELEMENT = "Line.CAP_1B"
L2823592                    2      1390.3 +j    800.4     1604.3       0.8666
   TERMINAL TOTAL ...............  1390.3 +j    800.4     1604.3       0.8666
L2823592_CAP                2     -1390.2 +j   -800.4     1604.2       0.8666
   TERMINAL TOTAL ............... -1390.2 +j   -800.4     1604.2       0.8666

ELEMENT = "Line.CAP_1C"
L2823592                    3      1331.4 +j    367.4     1381.1       0.9640
   TERMINAL TOTAL ...............  1331.4 +j    367.4     1381.1       0.9640
L2823592_CAP                3     -1331.3 +j   -367.4     1381.1       0.9640
   TERMINAL TOTAL ............... -1331.3 +j   -367.4     1381.1       0.9640

ELEMENT = "Line.LN5513564-2"
L2823592_CAP                1      1544.7 +j    605.8     1659.2       0.9310
L2823592_CAP                2      1390.2 +j    800.4     1604.2       0.8666
L2823592_CAP                3      1331.3 +j    367.4     1381.1       0.9640
   TERMINAL TOTAL ...............  4266.3 +j   1773.5     4620.2       0.9234
R20185                      1     -1544.6 +j   -605.7     1659.1       0.9310
R20185                      2     -1390.2 +j   -800.4     1604.1       0.8666
R20185                      3     -1331.3 +j   -367.3     1381.1       0.9640
   TERMINAL TOTAL ............... -4266.1 +j  -1773.4     4620.0       0.9234

ELEMENT = "Line.LN5513564-1"
R20185                      1      1544.6 +j    916.7     1796.1       0.8600
R20185                      2      1390.2 +j   1109.2     1778.5       0.7817
R20185                      3      1331.3 +j    682.0     1495.8       0.8900
   TERMINAL TOTAL ...............  4266.1 +j   2707.9     5053.0       0.8443
D5513564-1_INT              1     -1544.4 +j   -916.2     1795.7       0.8600
D5513564-1_INT              2     -1390.0 +j  -1108.7     1778.0       0.7818
D5513564-1_INT              3     -1331.3 +j   -681.7     1495.7       0.8901
   TERMINAL TOTAL ............... -4265.6 +j  -2706.7     5051.9       0.8444

ELEMENT = "Line.XJ171_48332_SW"
D5513564-1_INT              1      1544.4 +j    916.2     1795.7       0.8600
D5513564-1_INT              2      1390.0 +j   1108.7     1778.0       0.7818
D5513564-1_INT              3      1331.3 +j    681.7     1495.7       0.8901
   TERMINAL TOTAL ...............  4265.6 +j   2706.7     5051.9       0.8444
E192201                     1     -1544.4 +j   -916.2     1795.7       0.8600
E192201                     2     -1390.0 +j  -1108.7     1778.0       0.7818
E192201                     3     -1331.3 +j   -681.7     1495.7       0.8901
   TERMINAL TOTAL ............... -4265.6 +j  -2706.7     5051.9       0.8444

ELEMENT = "Line.LN6321409-1"
E192201                     1      1544.4 +j    916.2     1795.7       0.8600
E192201                     2      1390.0 +j   1108.7     1778.0       0.7818
E192201                     3      1331.3 +j    681.7     1495.7       0.8901
   TERMINAL TOTAL ...............  4265.6 +j   2706.7     5051.9       0.8444
M1209800                    1     -1543.7 +j   -915.1     1794.5       0.8602
M1209800                    2     -1389.4 +j  -1107.4     1776.7       0.7820
M1209800                    3     -1331.1 +j   -680.9     1495.1       0.8903
   TERMINAL TOTAL ............... -4264.2 +j  -2703.4     5048.9       0.8446

ELEMENT = "Line.LN5654466-1"
M1209800                    1      1539.1 +j    913.9     1790.0       0.8598
M1209800                    2      1403.1 +j   1112.2     1790.5       0.7837
M1209800                    3      1118.2 +j    625.2     1281.1       0.8728
   TERMINAL TOTAL ...............  4060.5 +j   2651.3     4849.4       0.8373
M1209797                    1     -1538.0 +j   -912.3     1788.3       0.8601
M1209797                    2     -1402.5 +j  -1110.3     1788.8       0.7841
M1209797                    3     -1118.1 +j   -624.5     1280.7       0.8730
   TERMINAL TOTAL ............... -4058.7 +j  -2647.1     4845.6       0.8376

ELEMENT = "Line.LN6291242-1"
M1209797                    1      1538.0 +j    912.3     1788.3       0.8601
M1209797                    2      1402.5 +j   1110.3     1788.8       0.7841
M1209797                    3      1118.1 +j    624.5     1280.7       0.8730
   TERMINAL TOTAL ...............  4058.7 +j   2647.1     4845.6       0.8376
M1209791                    1     -1537.1 +j   -910.9     1786.7       0.8603
M1209791                    2     -1402.0 +j  -1108.6     1787.3       0.7844
M1209791                    3     -1118.1 +j   -623.9     1280.4       0.8732
   TERMINAL TOTAL ............... -4057.1 +j  -2643.4     4842.3       0.8379

ELEMENT = "Line.LN5654472-1"
M1209791                    1      1498.1 +j    901.1     1748.2       0.8569
M1209791                    2      1402.0 +j   1108.6     1787.3       0.7844
M1209791                    3      1118.1 +j    623.9     1280.4       0.8732
   TERMINAL TOTAL ...............  4018.1 +j   2633.7     4804.3       0.8364
M1209790                    1     -1497.3 +j   -900.1     1747.0       0.8571
M1209790                    2     -1401.5 +j  -1107.1     1786.0       0.7847
M1209790                    3     -1118.0 +j   -623.4     1280.1       0.8734
   TERMINAL TOTAL ............... -4016.8 +j  -2630.6     4801.5       0.8366

ELEMENT = "Line.LN5594242-1"
M1209790                    1      1497.3 +j    900.1     1747.0       0.8571
M1209790                    2      1401.5 +j   1107.1     1786.0       0.7847
M1209790                    3      1118.0 +j    623.4     1280.1       0.8734
   TERMINAL TOTAL ...............  4016.8 +j   2630.6     4801.5       0.8366
M1209788                    1     -1496.5 +j   -898.9     1745.7       0.8572
M1209788                    2     -1401.0 +j  -1105.6     1784.7       0.7850
M1209788                    3     -1117.9 +j   -622.9     1279.8       0.8735
   TERMINAL TOTAL ............... -4015.4 +j  -2627.4     4798.6       0.8368

ELEMENT = "Line.LN6351519-1"
M1209788                    1      1496.5 +j    898.9     1745.7       0.8572
M1209788                    2      1401.0 +j   1105.6     1784.7       0.7850
M1209788                    3      1111.8 +j    621.4     1273.7       0.8729
   TERMINAL TOTAL ...............  4009.3 +j   2625.9     4792.7       0.8365
M1209787                    1     -1495.0 +j   -896.8     1743.3       0.8576
M1209787                    2     -1400.0 +j  -1102.8     1782.2       0.7856
M1209787                    3     -1111.7 +j   -620.5     1273.2       0.8732
   TERMINAL TOTAL ............... -4006.8 +j  -2620.0     4787.4       0.8370

ELEMENT = "Line.LN6261021-1"
M1209787                    1      1495.0 +j    896.8     1743.3       0.8576
M1209787                    2      1400.0 +j   1102.8     1782.2       0.7856
M1209787                    3      1111.7 +j    620.5     1273.2       0.8732
   TERMINAL TOTAL ...............  4006.8 +j   2620.0     4787.4       0.8370
L2823611                    1     -1493.3 +j   -894.3     1740.6       0.8579
L2823611                    2     -1399.0 +j  -1099.6     1779.4       0.7862
L2823611                    3     -1111.6 +j   -619.4     1272.5       0.8736
   TERMINAL TOTAL ............... -4003.9 +j  -2613.2     4781.2       0.8374

ELEMENT = "Line.LN5473440-1"
L2823611                    1      1485.0 +j    892.2     1732.4       0.8572
L2823611                    2      1399.0 +j   1099.6     1779.4       0.7862
L2823611                    3      1111.6 +j    619.4     1272.5       0.8736
   TERMINAL TOTAL ...............  3995.6 +j   2611.1     4773.1       0.8371
L3030204                    1     -1483.8 +j   -890.6     1730.6       0.8574
L3030204                    2     -1398.2 +j  -1097.4     1777.5       0.7866
L3030204                    3     -1111.6 +j   -618.6     1272.1       0.8738
   TERMINAL TOTAL ............... -3993.6 +j  -2606.6     4769.0       0.8374

ELEMENT = "Line.LN5866268-1"
L3030204                    1      1475.0 +j    888.3     1721.8       0.8566
L3030204                    2      1398.2 +j   1097.4     1777.5       0.7866
L3030204                    3      1111.6 +j    618.6     1272.1       0.8738
   TERMINAL TOTAL ...............  3984.7 +j   2604.4     4760.3       0.8371
M1186072                    1     -1474.0 +j   -887.1     1720.4       0.8568
M1186072                    2     -1397.6 +j  -1095.6     1775.9       0.7870
M1186072                    3     -1111.5 +j   -618.0     1271.8       0.8740
   TERMINAL TOTAL ............... -3983.2 +j  -2600.7     4757.0       0.8373

ELEMENT = "Line.LN0048634_SW"
M1186072                    1      1474.0 +j    887.1     1720.4       0.8568
M1186072                    2      1397.6 +j   1095.6     1775.9       0.7870
M1186072                    3      1111.5 +j    618.0     1271.8       0.8740
   TERMINAL TOTAL ...............  3983.2 +j   2600.7     4757.0       0.8373
D6048634-1_INT              1     -1474.0 +j   -887.1     1720.4       0.8568
D6048634-1_INT              2     -1397.6 +j  -1095.6     1775.9       0.7870
D6048634-1_INT              3     -1111.5 +j   -618.0     1271.8       0.8740
...