distopf/cases/dss/9500-primary-network/final9500node_VLN_Node.Txt

LINE-GROUND and LINE-LINE VOLTAGES BY BUS & NODE

Bus                     Node    VLN (kV)   Angle      pu     Base kV    Node-Node   VLL (kV)  Angle      pu

SOURCEBUS ............. 1       69.715 /_    0.0      1.05   115.000        1-2     120.75 /_   30.0      1.05
   -                    2       69.715 /_ -120.0      1.05   115.000        2-3     120.75 /_  -90.0      1.05
   -                    3       69.715 /_  120.0      1.05   115.000        3-1     120.75 /_  150.0      1.05
HVMV115_HSB1 .......... 1       69.633 /_   -0.6    1.0488   115.000        1-2     120.57 /_   29.4    1.0485
   -                    2       69.614 /_ -120.5    1.0485   115.000        2-3     120.61 /_  -90.5    1.0488
   -                    3       69.653 /_  119.5    1.0491   115.000        3-1     120.64 /_  149.4    1.0491
HVMV115_HSB2 .......... 1       69.633 /_   -0.6    1.0488   115.000        1-2     120.57 /_   29.4    1.0485
   -                    2       69.614 /_ -120.5    1.0485   115.000        2-3     120.61 /_  -90.5    1.0488
   -                    3       69.653 /_  119.5    1.0491   115.000        3-1     120.64 /_  149.4    1.0491
REGXFMR_HVMV69SUB1_LSB1 1       41.687 /_  -31.0    1.0464    69.000        1-2     72.183 /_   -1.0    1.0461
   -                    2       41.653 /_ -151.0    1.0456    69.000        2-3     72.152 /_ -121.0    1.0457
   -                    3       41.692 /_   89.0    1.0466    69.000        3-1     72.227 /_  119.0    1.0468
HVMV69SUB1_LSB2 ....... 1       41.687 /_  -31.0    1.0464    69.000        1-2     72.183 /_   -1.0    1.0461
   -                    2       41.653 /_ -151.0    1.0456    69.000        2-3     72.152 /_ -121.0    1.0457
   -                    3       41.692 /_   89.0    1.0466    69.000        3-1     72.227 /_  119.0    1.0468
HVMV69SUB1_HSB ........ 1       41.687 /_  -31.0    1.0464    69.000        1-2     72.183 /_   -1.0    1.0461
   -                    2       41.653 /_ -151.0    1.0456    69.000        2-3     72.152 /_ -121.0    1.0457
   -                    3       41.692 /_   89.0    1.0466    69.000        3-1     72.227 /_  119.0    1.0468
HVMV11SUB1_LSB ........ 1       7.3668 /_  -31.9    1.0232    12.470        1-2     12.736 /_   -1.9    1.0214
   -                    2        7.347 /_ -151.8    1.0205    12.470        2-3     12.759 /_ -121.7    1.0232
   -                    3       7.3907 /_   88.2    1.0266    12.470        3-1     12.791 /_  118.1    1.0257
HVMV_SUB1_48332 ....... 1       7.3668 /_  -31.9    1.0232    12.470        1-2     12.736 /_   -1.9    1.0214
   -                    2        7.347 /_ -151.8    1.0205    12.470        2-3     12.759 /_ -121.7    1.0232
   -                    3       7.3907 /_   88.2    1.0266    12.470        3-1     12.791 /_  118.1    1.0257
D5710794-3_INT ........ 1       7.3655 /_  -31.9     1.023    12.470        1-2     12.734 /_   -1.9    1.0212
   -                    2       7.3455 /_ -151.9    1.0203    12.470        2-3     12.757 /_ -121.7     1.023
   -                    3       7.3901 /_   88.2    1.0265    12.470        3-1     12.789 /_  118.1    1.0256
E192860 ............... 1       7.3655 /_  -31.9     1.023    12.470        1-2     12.734 /_   -1.9    1.0212
   -                    2       7.3455 /_ -151.9    1.0203    12.470        2-3     12.757 /_ -121.7     1.023
   -                    3       7.3901 /_   88.2    1.0265    12.470        3-1     12.789 /_  118.1    1.0256
HVMV69S1S2_1 .......... 1       41.687 /_  -31.0    1.0464    69.000        1-2     72.183 /_   -1.0    1.0461
   -                    2       41.653 /_ -151.0    1.0456    69.000        2-3     72.152 /_ -121.0    1.0457
   -                    3       41.692 /_   89.0    1.0466    69.000        3-1     72.227 /_  119.0    1.0468
HVMV69S1S2_2 .......... 1        41.68 /_  -31.0    1.0463    69.000        1-2     72.177 /_   -1.1     1.046
   -                    2       41.651 /_ -151.1    1.0455    69.000        2-3     72.143 /_ -121.0    1.0456
   -                    3       41.688 /_   89.0    1.0465    69.000        3-1     72.219 /_  119.0    1.0467
HVMV69S1S2_3 .......... 1       41.674 /_  -31.1    1.0461    69.000        1-2     72.172 /_   -1.1     1.046
   -                    2       41.649 /_ -151.1    1.0455    69.000        2-3     72.137 /_ -121.0    1.0455
   -                    3       41.685 /_   89.0    1.0464    69.000        3-1     72.213 /_  119.0    1.0466
HVMV69S1S2_4 .......... 1       41.669 /_  -31.1     1.046    69.000        1-2     72.167 /_   -1.1    1.0459
   -                    2       41.647 /_ -151.1    1.0454    69.000        2-3      72.13 /_ -121.1    1.0454
   -                    3       41.683 /_   89.0    1.0463    69.000        3-1     72.207 /_  118.9    1.0465
HVMV69S1S2_5 .......... 1       41.654 /_  -31.1    1.0456    69.000        1-2     72.154 /_   -1.2    1.0457
   -                    2       41.643 /_ -151.2    1.0453    69.000        2-3     72.112 /_ -121.1    1.0451
   -                    3       41.675 /_   88.9    1.0461    69.000        3-1     72.191 /_  118.9    1.0462
HVMV69S1S2_6 .......... 1       41.639 /_  -31.2    1.0452    69.000        1-2     72.141 /_   -1.2    1.0455
   -                    2       41.638 /_ -151.3    1.0452    69.000        2-3     72.093 /_ -121.2    1.0448
   -                    3       41.667 /_   88.9    1.0459    69.000        3-1     72.175 /_  118.8     1.046
HVMV69S1S2_7 .......... 1       41.624 /_  -31.2    1.0449    69.000        1-2     72.127 /_   -1.3    1.0453
   -                    2       41.632 /_ -151.3    1.0451    69.000        2-3     72.074 /_ -121.2    1.0446
   -                    3       41.659 /_   88.8    1.0457    69.000        3-1     72.158 /_  118.8    1.0458
HVMV69S1S2_8 .......... 1       41.616 /_  -31.3    1.0447    69.000        1-2      72.12 /_   -1.3    1.0452
   -                    2        41.63 /_ -151.3     1.045    69.000        2-3     72.064 /_ -121.3    1.0444
   -                    3       41.654 /_   88.8    1.0456    69.000        3-1     72.149 /_  118.8    1.0456
HVMV69S1S2_9 .......... 1       41.609 /_  -31.3    1.0445    69.000        1-2     72.113 /_   -1.3    1.0451
   -                    2       41.627 /_ -151.4    1.0449    69.000        2-3     72.055 /_ -121.3    1.0443
   -                    3        41.65 /_   88.8    1.0455    69.000        3-1      72.14 /_  118.7    1.0455
HVMV69S1S2_10 ......... 1       41.601 /_  -31.3    1.0443    69.000        1-2     72.106 /_   -1.4     1.045
   -                    2       41.624 /_ -151.4    1.0449    69.000        2-3     72.045 /_ -121.3    1.0441
   -                    3       41.646 /_   88.8    1.0454    69.000        3-1     72.131 /_  118.7    1.0454
HVMV69SUB2_LNB ........ 1       41.601 /_  -31.3    1.0443    69.000        1-2     72.106 /_   -1.4     1.045
   -                    2       41.624 /_ -151.4    1.0449    69.000        2-3     72.045 /_ -121.3    1.0441
   -                    3       41.646 /_   88.8    1.0454    69.000        3-1     72.131 /_  118.7    1.0454
HVMV69SUB2_HSB ........ 1       41.601 /_  -31.3    1.0443    69.000        1-2     72.106 /_   -1.4     1.045
   -                    2       41.624 /_ -151.4    1.0449    69.000        2-3     72.045 /_ -121.3    1.0441
   -                    3       41.646 /_   88.8    1.0454    69.000        3-1     72.131 /_  118.7    1.0454
HVMV11SUB2_LSB ........ 1       7.3954 /_  -31.9    1.0272    12.470        1-2     12.821 /_   -2.0    1.0282
   -                    2       7.3956 /_ -152.1    1.0272    12.470        2-3     12.753 /_ -122.0    1.0227
   -                    3       7.3559 /_   88.3    1.0217    12.470        3-1     12.786 /_  118.3    1.0253
M1047300 .............. 1       7.3954 /_  -31.9    1.0272    12.470        1-2     12.821 /_   -2.0    1.0282
   -                    2       7.3956 /_ -152.1    1.0272    12.470        2-3     12.753 /_ -122.0    1.0227
   -                    3       7.3559 /_   88.3    1.0217    12.470        3-1     12.786 /_  118.3    1.0253
HVMV69S2S3_1 .......... 1       41.601 /_  -31.3    1.0443    69.000        1-2     72.106 /_   -1.4     1.045
   -                    2       41.624 /_ -151.4    1.0449    69.000        2-3     72.045 /_ -121.3    1.0441
   -                    3       41.646 /_   88.8    1.0454    69.000        3-1     72.131 /_  118.7    1.0454
HVMV69S2S3_2 .......... 1       41.602 /_  -31.4    1.0443    69.000        1-2     72.122 /_   -1.4    1.0452
   -                    2       41.639 /_ -151.5    1.0452    69.000        2-3     72.051 /_ -121.4    1.0442
   -                    3       41.645 /_   88.7    1.0454    69.000        3-1     72.136 /_  118.7    1.0454
HVMV69SUB3_HSB ........ 1       41.602 /_  -31.4    1.0443    69.000        1-2     72.122 /_   -1.4    1.0452
   -                    2       41.639 /_ -151.5    1.0452    69.000        2-3     72.051 /_ -121.4    1.0442
   -                    3       41.645 /_   88.7    1.0454    69.000        3-1     72.136 /_  118.7    1.0454
HVMV11SUB3_LSB ........ 1       7.4003 /_  -31.8    1.0279    12.470        1-2     12.845 /_   -1.9    1.0301
   -                    2       7.4171 /_ -152.0    1.0302    12.470        2-3     12.813 /_ -122.0    1.0275
   -                    3       7.3971 /_   88.2    1.0274    12.470        3-1     12.819 /_  118.2    1.0279
E203026 ............... 1       7.4003 /_  -31.8    1.0279    12.470        1-2     12.845 /_   -1.9    1.0301
   -                    2       7.4171 /_ -152.0    1.0302    12.470        2-3     12.813 /_ -122.0    1.0275
   -                    3       7.3971 /_   88.2    1.0274    12.470        3-1     12.819 /_  118.2    1.0279
M1209817 .............. 1       7.3641 /_  -32.0    1.0229    12.470        1-2     12.731 /_   -2.0     1.021
   -                    2       7.3439 /_ -151.9    1.0201    12.470        2-3     12.755 /_ -121.7    1.0229
   -                    3       7.3895 /_   88.2    1.0264    12.470        3-1     12.787 /_  118.1    1.0254
L2801909 .............. 1       7.3623 /_  -32.0    1.0226    12.470        1-2     12.728 /_   -2.0    1.0207
   -                    2       7.3419 /_ -151.9    1.0198    12.470        2-3     12.753 /_ -121.7    1.0227
   -                    3       7.3887 /_   88.2    1.0263    12.470        3-1     12.785 /_  118.1    1.0253
M1209814 .............. 1       7.3575 /_  -32.0    1.0219    12.470        1-2     12.719 /_   -2.0      1.02
   -                    2       7.3364 /_ -151.9     1.019    12.470        2-3     12.746 /_ -121.8    1.0222
   -                    3       7.3865 /_   88.2     1.026    12.470        3-1     12.779 /_  118.0    1.0248
M1209811 .............. 1       7.3499 /_  -32.0    1.0209    12.470        1-2     12.706 /_   -2.0    1.0189
   -                    2        7.328 /_ -152.0    1.0178    12.470        2-3     12.737 /_ -121.8    1.0214
   -                    3       7.3832 /_   88.1    1.0255    12.470        3-1     12.769 /_  118.0     1.024
M1209807 .............. 1       7.3413 /_  -32.1    1.0197    12.470        1-2      12.69 /_   -2.1    1.0176
   -                    2       7.3183 /_ -152.0    1.0165    12.470        2-3     12.725 /_ -121.8    1.0205
   -                    3       7.3794 /_   88.0     1.025    12.470        3-1     12.758 /_  117.9    1.0231
M1209805 .............. 1       7.3382 /_  -32.1    1.0193    12.470        1-2     12.684 /_   -2.1    1.0172
   -                    2       7.3148 /_ -152.0     1.016    12.470        2-3     12.721 /_ -121.9    1.0201
   -                    3        7.378 /_   88.0    1.0248    12.470        3-1     12.754 /_  117.9    1.0228
L2823592 .............. 1       7.3309 /_  -32.2    1.0182    12.470        1-2     12.671 /_   -2.2    1.0161
   -                    2       7.3062 /_ -152.1    1.0148    12.470        2-3     12.711 /_ -121.9    1.0193
   -                    3       7.3749 /_   88.0    1.0244    12.470        3-1     12.744 /_  117.8     1.022
L2823592_CAP .......... 1       7.3306 /_  -32.2    1.0182    12.470        1-2      12.67 /_   -2.2     1.016
   -                    2       7.3059 /_ -152.1    1.0148    12.470        2-3     12.711 /_ -121.9    1.0193
   -                    3       7.3746 /_   88.0    1.0243    12.470        3-1     12.744 /_  117.8     1.022
R20185 ................ 1       7.3303 /_  -32.2    1.0182    12.470        1-2     12.669 /_   -2.2     1.016
   -                    2       7.3056 /_ -152.1    1.0147    12.470        2-3      12.71 /_ -121.9    1.0193
   -                    3       7.3744 /_   88.0    1.0243    12.470        3-1     12.743 /_  117.8    1.0219
D5513564-1_INT ........ 1       7.3285 /_  -32.2    1.0179    12.470        1-2     12.666 /_   -2.2    1.0157
   -                    2       7.3036 /_ -152.1    1.0144    12.470        2-3     12.708 /_ -121.9    1.0191
   -                    3       7.3735 /_   88.0    1.0242    12.470        3-1     12.741 /_  117.8    1.0217
E192201 ............... 1       7.3285 /_  -32.2    1.0179    12.470        1-2     12.666 /_   -2.2    1.0157
   -                    2       7.3036 /_ -152.1    1.0144    12.470        2-3     12.708 /_ -121.9    1.0191
   -                    3       7.3735 /_   88.0    1.0242    12.470        3-1     12.741 /_  117.8    1.0217
M1209800 .............. 1       7.3238 /_  -32.2    1.0173    12.470        1-2     12.657 /_   -2.2     1.015
   -                    2       7.2982 /_ -152.1    1.0137    12.470        2-3     12.701 /_ -121.9    1.0185
   -                    3       7.3709 /_   87.9    1.0238    12.470        3-1     12.734 /_  117.8    1.0212
M1209797 .............. 1       7.3166 /_  -32.2    1.0163    12.470        1-2     12.646 /_   -2.2    1.0141
   -                    2       7.2913 /_ -152.1    1.0127    12.470        2-3     12.692 /_ -121.9    1.0178
   -                    3       7.3686 /_   87.9    1.0235    12.470        3-1     12.726 /_  117.7    1.0205
M1209791 .............. 1       7.3103 /_  -32.2    1.0154    12.470        1-2     12.636 /_   -2.3    1.0133
   -                    2       7.2851 /_ -152.2    1.0119    12.470        2-3     12.685 /_ -122.0    1.0172
   -                    3       7.3665 /_   87.9    1.0232    12.470        3-1     12.719 /_  117.7      1.02
M1209790 .............. 1       7.3052 /_  -32.3    1.0147    12.470        1-2     12.627 /_   -2.3    1.0126
   -                    2       7.2799 /_ -152.2    1.0112    12.470        2-3     12.678 /_ -122.0    1.0167
   -                    3       7.3648 /_   87.9    1.0229    12.470        3-1     12.713 /_  117.7    1.0195
M1209788 .............. 1       7.2997 /_  -32.3    1.0139    12.470        1-2     12.618 /_   -2.3    1.0119
   -                    2       7.2743 /_ -152.2    1.0104    12.470        2-3     12.671 /_ -122.0    1.0161
   -                    3        7.363 /_   87.8    1.0227    12.470        3-1     12.707 /_  117.6     1.019
M1209787 .............. 1       7.2898 /_  -32.3    1.0125    12.470        1-2     12.602 /_   -2.4    1.0106
   -                    2       7.2642 /_ -152.3     1.009    12.470        2-3     12.659 /_ -122.0    1.0151
   -                    3       7.3597 /_   87.8    1.0222    12.470        3-1     12.695 /_  117.6    1.0181
L2823611 .............. 1       7.2783 /_  -32.4    1.0109    12.470        1-2     12.583 /_   -2.4    1.0091
   -                    2       7.2526 /_ -152.3    1.0074    12.470        2-3     12.644 /_ -122.1     1.014
   -                    3        7.356 /_   87.8    1.0217    12.470        3-1     12.682 /_  117.5     1.017
L3030204 .............. 1       7.2706 /_  -32.4    1.0099    12.470        1-2     12.571 /_   -2.4    1.0081
   -                    2       7.2447 /_ -152.4    1.0063    12.470        2-3     12.634 /_ -122.1    1.0132
   -                    3       7.3535 /_   87.7    1.0214    12.470        3-1     12.673 /_  117.5    1.0163
M1186072 .............. 1       7.2644 /_  -32.4     1.009    12.470        1-2      12.56 /_   -2.5    1.0073
   -                    2       7.2383 /_ -152.4    1.0054    12.470        2-3     12.626 /_ -122.1    1.0125
   -                    3       7.3515 /_   87.7    1.0211    12.470        3-1     12.666 /_  117.5    1.0157
D6048634-1_INT ........ 1       7.2644 /_  -32.4     1.009    12.470        1-2      12.56 /_   -2.5    1.0073
   -                    2       7.2383 /_ -152.4    1.0054    12.470        2-3     12.626 /_ -122.1    1.0125
   -                    3       7.3515 /_   87.7    1.0211    12.470        3-1     12.666 /_  117.5    1.0157
M1186067 .............. 1       7.2606 /_  -32.4    1.0085    12.470        1-2     12.554 /_   -2.5    1.0067
   -                    2       7.2343 /_ -152.4    1.0048    12.470        2-3     12.621 /_ -122.1    1.0121
   -                    3       7.3502 /_   87.7    1.0209    12.470        3-1     12.661 /_  117.4    1.0154
M3032980 .............. 1        7.256 /_  -32.4    1.0078    12.470        1-2     12.547 /_   -2.5    1.0061
   -                    2       7.2296 /_ -152.5    1.0042    12.470        2-3     12.616 /_ -122.1    1.0117
   -                    3       7.3487 /_   87.7    1.0207    12.470        3-1     12.656 /_  117.4    1.0149
M3032977 .............. 1        7.234 /_  -32.5    1.0048    12.470        1-2      12.51 /_   -2.6    1.0032
   -                    2       7.2072 /_ -152.6    1.0011    12.470        2-3     12.588 /_ -122.2    1.0095
   -                    3        7.341 /_   87.6    1.0197    12.470        3-1      12.63 /_  117.3    1.0129
M1166366 .............. 1       7.2078 /_  -32.6    1.0011    12.470        1-2     12.466 /_   -2.7   0.99968
   -                    2       7.1805 /_ -152.7   0.99736    12.470        2-3     12.555 /_ -122.2    1.0068
   -                    3       7.3319 /_   87.5    1.0184    12.470        3-1       12.6 /_  117.2    1.0104
M1166368 .............. 1       7.2042 /_  -32.6    1.0006    12.470        1-2      12.46 /_   -2.7   0.99921
   -                    2        7.177 /_ -152.7   0.99687    12.470        2-3     12.551 /_ -122.3    1.0065
   -                    3       7.3307 /_   87.5    1.0182    12.470        3-1     12.596 /_  117.2    1.0101
L2973833 .............. 1       7.1952 /_  -32.7   0.99939    12.470        1-2     12.445 /_   -2.8   0.99802
   -                    2       7.1679 /_ -152.8   0.99561    12.470        2-3      12.54 /_ -122.3    1.0056
   -                    3        7.328 /_   87.5    1.0178    12.470        3-1     12.585 /_  117.1    1.0093
M1166373 .............. 1       7.1916 /_  -32.7   0.99889    12.470        1-2      12.44 /_   -2.8   0.99755
   -                    2       7.1644 /_ -152.8   0.99511    12.470        2-3     12.535 /_ -122.3    1.0052
   -                    3       7.3268 /_   87.5    1.0177    12.470        3-1     12.581 /_  117.1    1.0089
M1166374 .............. 1       7.1908 /_  -32.7   0.99879    12.470        1-2     12.438 /_   -2.8   0.99745
   -                    2       7.1635 /_ -152.8     0.995    12.470        2-3     12.534 /_ -122.3    1.0051
   -                    3       7.3266 /_   87.5    1.0176    12.470        3-1     12.581 /_  117.1    1.0089
L2786266 .............. 1       7.1852 /_  -32.7   0.99801    12.470        1-2     12.429 /_   -2.8    0.9967
   -                    2       7.1575 /_ -152.8   0.99416    12.470        2-3     12.527 /_ -122.3    1.0046
   -                    3       7.3248 /_   87.4    1.0174    12.470        3-1     12.574 /_  117.1    1.0083
M1166375 .............. 1       7.1824 /_  -32.7   0.99762    12.470        1-2     12.424 /_   -2.8   0.99632
   -                    2       7.1545 /_ -152.8   0.99374    12.470        2-3     12.523 /_ -122.3    1.0043
   -                    3       7.3239 /_   87.4    1.0173    12.470        3-1     12.571 /_  117.0    1.0081
L2842383 .............. 1       7.1745 /_  -32.7   0.99652    12.470        1-2     12.411 /_   -2.9   0.99525
   -                    2       7.1458 /_ -152.9   0.99254    12.470        2-3     12.513 /_ -122.3    1.0034
   -                    3       7.3215 /_   87.4    1.0169    12.470        3-1     12.561 /_  117.0    1.0073
D6023352-1_INT ........ 1       7.1702 /_  -32.7   0.99592    12.470        1-2     12.404 /_   -2.9   0.99467
   -                    2       7.1411 /_ -152.9   0.99188    12.470        2-3     12.507 /_ -122.3     1.003
   -                    3       7.3201 /_   87.4    1.0167    12.470        3-1     12.556 /_  117.0    1.0069
E184626 ............... 1       7.1702 /_  -32.7   0.99592    12.470        1-2     12.404 /_   -2.9   0.99467
   -                    2       7.1411 /_ -152.9   0.99188    12.470        2-3     12.507 /_ -122.3     1.003
   -                    3       7.3201 /_   87.4    1.0167    12.470        3-1     12.556 /_  117.0    1.0069
M1166377 .............. 1       7.1694 /_  -32.7   0.99581    12.470        1-2     12.402 /_   -2.9   0.99456
   -                    2       7.1401 /_ -152.9   0.99175    12.470        2-3     12.506 /_ -122.3    1.0029
   -                    3       7.3199 /_   87.4    1.0167    12.470        3-1     12.555 /_  117.0    1.0068
M1166376 .............. 1       7.1666 /_  -32.7   0.99543    12.470        1-2     12.398 /_   -2.9   0.99419
   -                    2       7.1371 /_ -152.9   0.99133    12.470        2-3     12.503 /_ -122.4    1.0026
   -                    3        7.319 /_   87.4    1.0166    12.470        3-1     12.552 /_  117.0    1.0066
L2842384 .............. 1       7.1662 /_  -32.7   0.99537    12.470        1-2     12.397 /_   -2.9   0.99413
   -                    2       7.1366 /_ -152.9   0.99126    12.470        2-3     12.502 /_ -122.4    1.0026
   -                    3       7.3189 /_   87.4    1.0166    12.470        3-1     12.551 /_  117.0    1.0065
M1149236 .............. 1       7.1607 /_  -32.8   0.99461    12.470        1-2     12.388 /_   -2.9   0.99339
   -                    2       7.1306 /_ -152.9   0.99042    12.470        2-3     12.495 /_ -122.4     1.002
   -                    3       7.3172 /_   87.3    1.0163    12.470        3-1     12.545 /_  116.9     1.006
M1149235 .............. 1       7.1574 /_  -32.8   0.99414    12.470        1-2     12.382 /_   -2.9   0.99293
   -                    2       7.1268 /_ -153.0    0.9899    12.470        2-3      12.49 /_ -122.4    1.0016
   -                    3       7.3161 /_   87.3    1.0162    12.470        3-1     12.541 /_  116.9    1.0057
D5563942-4_INT ........ 1       7.1548 /_  -32.8   0.99378    12.470        1-2     12.378 /_   -2.9   0.99259
   -                    2       7.1241 /_ -153.0   0.98951    12.470        2-3     12.487 /_ -122.4    1.0014
   -                    3       7.3154 /_   87.3    1.0161    12.470        3-1     12.538 /_  116.9    1.0055
Q16483 ................ 1       7.1548 /_  -32.8   0.99378    12.470        1-2     12.378 /_   -2.9   0.99259
   -                    2       7.1241 /_ -153.0   0.98951    12.470        2-3     12.487 /_ -122.4    1.0014
   -                    3       7.3154 /_   87.3    1.0161    12.470        3-1     12.538 /_  116.9    1.0055
Q16483_CAP ............ 1       7.1545 /_  -32.8   0.99374    12.470        1-2     12.377 /_   -2.9   0.99255
   -                    2       7.1237 /_ -153.0   0.98947    12.470        2-3     12.487 /_ -122.4    1.0013
   -                    3       7.3152 /_   87.3    1.0161    12.470        3-1     12.538 /_  116.9    1.0054
R42247 ................ 1       7.1541 /_  -32.8   0.99368    12.470        1-2     12.376 /_   -2.9   0.99249
   -                    2       7.1233 /_ -153.0   0.98941    12.470        2-3     12.486 /_ -122.4    1.0013
   -                    3       7.3151 /_   87.3     1.016    12.470        3-1     12.537 /_  116.9    1.0054
M1149233 .............. 1       7.1502 /_  -32.8   0.99314    12.470        1-2      12.37 /_   -3.0   0.99197
   -                    2       7.1192 /_ -153.0   0.98883    12.470        2-3     12.481 /_ -122.4    1.0009
   -                    3       7.3135 /_   87.3    1.0158    12.470        3-1     12.532 /_  116.9     1.005
L3048965 .............. 1       7.1406 /_  -32.8   0.99182    12.470        1-2     12.354 /_   -3.0    0.9907
   -                    2        7.109 /_ -153.0   0.98743    12.470        2-3     12.468 /_ -122.4   0.99985
   -                    3       7.3097 /_   87.3    1.0153    12.470        3-1      12.52 /_  116.9     1.004
M1142843 .............. 1       7.1356 /_  -32.8   0.99112    12.470        1-2     12.346 /_   -3.0   0.99003
   -                    2       7.1037 /_ -153.0   0.98669    12.470        2-3     12.461 /_ -122.4   0.99931
   -                    3       7.3077 /_   87.3     1.015    12.470        3-1     12.514 /_  116.8    1.0035
M1026329 .............. 1       7.3768 /_  -31.8    1.0246    12.470        1-2     12.806 /_   -2.0    1.0269
   -                    2       7.3793 /_ -152.3     1.025    12.470        2-3     12.729 /_ -122.0    1.0208
   -                    3       7.3627 /_   88.3    1.0227    12.470        3-1     12.776 /_  118.3    1.0245
M1026328 .............. 1       7.3766 /_  -31.8    1.0246    12.470        1-2     12.806 /_   -2.0    1.0269
   -                    2       7.3787 /_ -152.3    1.0249    12.470        2-3     12.729 /_ -122.0    1.0208
   -                    3       7.3632 /_   88.3    1.0227    12.470        3-1     12.776 /_  118.3    1.0245
M1026330 .............. 1       7.3771 /_  -31.8    1.0247    12.470        1-2     12.806 /_   -2.0    1.0269
   -                    2       7.3799 /_ -152.2    1.0251    12.470        2-3      12.73 /_ -122.0    1.0208
   -                    3       7.3622 /_   88.3    1.0226    12.470        3-1     12.776 /_  118.3    1.0245
M1026331 .............. 1       7.3775 /_  -31.8    1.0247    12.470        1-2     12.806 /_   -2.0    1.0269
   -                    2       7.3809 /_ -152.2    1.0252    12.470        2-3     12.731 /_ -122.0    1.0209
   -                    3       7.3614 /_   88.3    1.0225    12.470        3-1     12.776 /_  118.3    1.0245
M1026333 .............. 1       7.3778 /_  -31.9    1.0248    12.470        1-2     12.806 /_   -2.0     1.027
   -                    2       7.3817 /_ -152.2    1.0253    12.470        2-3     12.731 /_ -122.0     1.021
   -                    3       7.3607 /_   88.3    1.0224    12.470        3-1     12.776 /_  118.3    1.0245
L2973162 .............. 1       7.3781 /_  -31.9    1.0248    12.470        1-2     12.806 /_   -2.0     1.027
   -                    2       7.3826 /_ -152.2    1.0254    12.470        2-3     12.732 /_ -122.0     1.021
   -                    3       7.3599 /_   88.3    1.0223    12.470        3-1     12.776 /_  118.3    1.0245
M1026341 .............. 1       7.3786 /_  -31.9    1.0249    12.470        1-2     12.806 /_   -2.0     1.027
   -                    2       7.3838 /_ -152.2    1.0256    12.470        2-3     12.733 /_ -122.0    1.0211
   -                    3       7.3589 /_   88.3    1.0221    12.470        3-1     12.775 /_  118.3    1.0245
M1026347 .............. 1       7.3794 /_  -31.9     1.025    12.470        1-2     12.807 /_   -2.0     1.027
   -                    2       7.3843 /_ -152.2    1.0257    12.470        2-3     12.734 /_ -122.0    1.0212
   -                    3       7.3583 /_   88.3    1.0221    12.470        3-1     12.776 /_  118.3    1.0245
L3235275 .............. 1       7.3808 /_  -31.9    1.0252    12.470        1-2     12.808 /_   -2.0    1.0271
   -                    2       7.3852 /_ -152.2    1.0258    12.470        2-3     12.735 /_ -122.0    1.0213
   -                    3       7.3573 /_   88.3    1.0219    12.470        3-1     12.776 /_  118.3    1.0245
M1026354 .............. 1        7.382 /_  -31.9    1.0253    12.470        1-2     12.809 /_   -2.0    1.0272
   -                    2        7.386 /_ -152.2    1.0259    12.470        2-3     12.736 /_ -122.0    1.0213
   -                    3       7.3564 /_   88.3    1.0218    12.470        3-1     12.776 /_  118.3    1.0245
M1026356 .............. 1       7.3829 /_  -31.9    1.0255    12.470        1-2     12.809 /_   -2.0    1.0272
   -                    2       7.3867 /_ -152.2     1.026    12.470        2-3     12.737 /_ -122.0    1.0214
   -                    3       7.3563 /_   88.3    1.0218    12.470        3-1     12.776 /_  118.3    1.0246
M1026357 .............. 1       7.3836 /_  -31.9    1.0256    12.470        1-2      12.81 /_   -2.0    1.0273
   -                    2       7.3871 /_ -152.2    1.0261    12.470        2-3     12.738 /_ -122.0    1.0215
   -                    3       7.3563 /_   88.3    1.0218    12.470        3-1     12.777 /_  118.3    1.0246
L3122849 .............. 1       7.3856 /_  -31.9    1.0258    12.470        1-2     12.812 /_   -2.0    1.0274
   -                    2       7.3885 /_ -152.1    1.0263    12.470        2-3     12.741 /_ -122.0    1.0217
   -                    3       7.3562 /_   88.3    1.0218    12.470        3-1     12.778 /_  118.3    1.0247
L2691954 .............. 1       7.3872 /_  -31.9    1.0261    12.470        1-2     12.814 /_   -2.0    1.0275
   -                    2       7.3897 /_ -152.1    1.0264    12.470        2-3     12.742 /_ -122.0    1.0218
   -                    3       7.3562 /_   88.3    1.0218    12.470        3-1     12.779 /_  118.3    1.0248
M1047292 .............. 1       7.3893 /_  -31.9    1.0264    12.470        1-2     12.816 /_   -2.0    1.0277
...